geometry optimzed in LAMMPS
_audit_creation_date              2020-11-30 
_audit_creation_method            'lammps2cif' 
_symmetry_space_group_name_H-M    'P1' 
_symmetry_Int_Tables_number       1 
_symmetry_cell_setting            triclinic 
loop_ 
_symmetry_equiv_pos_as_xyz 
  x,y,z 
_cell_length_a                    45.04408449 
_cell_length_b                    44.91856106478006 
_cell_length_c                    44.984693493174156 
_cell_angle_alpha                 90.07730084364952 
_cell_angle_beta                  89.85756991748642 
_cell_angle_gamma                 89.90556297729775 
loop_ 
_atom_site_label 
_atom_site_type_symbol 
_atom_site_fract_x 
_atom_site_fract_y 
_atom_site_fract_z 
_atom_site_charge 
C1          C  0.79022651  0.76914584  0.74817730     0.80700
N2          N  0.78816125  0.75130671  0.77236632    -0.77600
C3          C  0.76548384  0.75467837  0.79193635     0.83200
N4          N  0.74492895  0.77621960  0.78740180    -0.77500
C5          C  0.74676220  0.79419198  0.76323633     0.83300
N6          N  0.76959528  0.79080595  0.74371861    -0.79200
C7          C  0.24956808  0.77349368  0.30240204     0.80700
N8          N  0.27071997  0.77605094  0.32375854    -0.77600
C9          C  0.29075433  0.79868622  0.32280740     0.83200
N10         N  0.28963406  0.81869394  0.30023906    -0.77500
C11         C  0.26856168  0.81628280  0.27879028     0.83300
N12         N  0.24861050  0.79366403  0.27993789    -0.79200
C13         C  0.80083979  0.74477422  0.27785684     0.80700
N14         N  0.82055169  0.76731813  0.28075117    -0.77600
C15         C  0.81723370  0.78776901  0.30274644     0.83200
N16         N  0.79389787  0.78582602  0.32171669    -0.77500
C17         C  0.77396109  0.76335902  0.31889327     0.83300
N18         N  0.77742764  0.74290017  0.29690285    -0.79200
C19         C  0.28915239  0.26925541  0.24686023     0.80700
N20         N  0.27065367  0.29317018  0.24666918    -0.77600
C21         C  0.24897275  0.29577078  0.26750254     0.83200
N22         N  0.24588699  0.27445249  0.28861526    -0.77500
C23         C  0.26412349  0.25041143  0.28887204     0.83300
N24         N  0.28597709  0.24801493  0.26814261    -0.79200
C25         C  0.80033253  0.31631415  0.29092530     0.80700
N26         N  0.81757058  0.29157000  0.28939116    -0.77600
C27         C  0.81307807  0.27111396  0.26767782     0.83200
N28         N  0.79126552  0.27542099  0.24746890    -0.77500
C29         C  0.77392869  0.30008287  0.24872486     0.83300
N30         N  0.77830473  0.32047207  0.27066438    -0.79200
C31         C  0.75402377  0.26927341  0.80246907     0.80700
N32         N  0.75155328  0.28816632  0.77905430    -0.77600
C33         C  0.77012915  0.31179770  0.77640184     0.83200
N34         N  0.79137045  0.31649062  0.79732614    -0.77500
C35         C  0.79382816  0.29771535  0.82087596     0.83300
N36         N  0.77522953  0.27407894  0.82323912    -0.79200
C37         C  0.29839191  0.82266056  0.79457873     0.80700
N38         N  0.27440096  0.82500701  0.77649995    -0.77600
C39         C  0.26952396  0.80434426  0.75507916     0.83200
N40         N  0.28864156  0.78114451  0.75180490    -0.77500
C41         C  0.31275655  0.77874530  0.76962170     0.83300
N42         N  0.31743986  0.79943080  0.79118602    -0.79200
O43         O  0.06964513  0.02447498  0.00373823    -0.87800
C44         C  0.98978657  0.03133452  0.96207052     0.88200
Mg45       Mg  0.08417822  0.98500005  0.02588963     1.58100
O46         O  0.99419465  0.06953356  0.02975941    -0.87600
O47         O  0.06252276  0.07165026  0.01385922    -0.74900
C48         C  0.97143193  0.94771415  0.11145915     0.93300
O49         O  0.03192042  0.97375353  0.97109660    -0.74700
O50         O  0.99323286  0.93630217  0.09754359    -0.82200
Mg51       Mg  0.05249372  0.01911523  0.95952362     1.58000
C52         C  0.92741420  0.06295874  0.09155519     0.93200
O53         O  0.07409249  0.06253509  0.94316059    -0.80500
H54         H  0.01267042  0.10116400  0.05495592    -0.05800
C55         C  0.95718539  0.98674950  0.03468788     0.88100
O56         O  0.07049065  0.00481254  0.07104368    -0.75000
O57         O  0.01296331  0.04155365  0.97255479    -0.87700
O58         O  0.93128807  0.06997808  0.06440651    -0.80600
C59         C  0.94825912  0.10637960  0.97682973     0.93300
C60         C  0.06797418  0.09011542  0.94040151     0.93100
Mg61       Mg  0.98309576  0.01758652  0.08873401     1.58000
O62         O  0.96324249  0.97444236  0.10690519    -0.80500
O63         O  0.00250501  0.06322606  0.07718616    -0.74700
O64         O  0.97582368  0.10378497  0.97069285    -0.80600
O65         O  0.09321002  0.99459871  0.94472004    -0.82300
O66         O  0.06082220  0.93477578  0.07931273    -0.80600
C67         C  0.00309928  0.07908075  0.05389397     0.87600
O68         O  0.02302412  0.99569912  0.07524728    -0.87700
O69         O  0.96588059  0.01085808  0.04465456    -0.87800
O70         O  0.97311655  0.96342047  0.03589710    -0.74900
Mg71       Mg  0.01832300  0.08484871  0.99209009     1.58000
O72         O  0.93596382  0.09072206  0.99693246    -0.82300
H73         H  0.10034084  0.04880054  0.02637142    -0.06000
O74         O  0.04108740  0.96606199  0.01832457    -0.87500
H75         H  0.02066448  0.93560723  0.99286174    -0.05800
H76         H  0.04614046  0.01553557  0.10752639    -0.06000
C77         C  0.03122607  0.95749653  0.99416708     0.87600
C78         C  0.07811933  0.04820011  0.01452249     0.88100
C79         C  0.04638987  0.00548647  0.08572003     0.88200
H80         H  0.93572191  0.98568151  0.02385864    -0.06000
O81         O  0.96580556  0.03073028  0.97690549    -0.75000
Mg82       Mg  0.01802912  0.95171746  0.05715517     1.58000
H83         H  0.99024240  0.02154878  0.93999340    -0.06000
C84         C  0.10748729  0.97300092  0.95600362     0.93200
O85         O  0.10003662  0.94420138  0.05090475    -0.82200
C86         C  0.08822677  0.93132658  0.07318410     0.93200
O87         O  0.04547020  0.10170020  0.95313321    -0.82200
Mg88       Mg  0.95133977  0.05002200  0.02182407     1.58200
O89         O  0.10356686  0.96505850  0.98290947    -0.80500
O90         O  0.94156045  0.04150147  0.10336674    -0.82200
C91         C  0.20767451  0.23430219  0.85462123     0.80700
N92         N  0.23326659  0.23469056  0.83860146    -0.77600
C93         C  0.25008275  0.25984364  0.83792057     0.83200
N94         N  0.24122446  0.28438037  0.85329411    -0.77500
C95         C  0.21556961  0.28419884  0.86913789     0.83300
N96         N  0.19893962  0.25906695  0.86953252    -0.79200
C97         C  0.84497309  0.19964828  0.24277196     0.80700
N98         N  0.86088831  0.19162925  0.26700432    -0.77600
C99         C  0.86155137  0.20933937  0.29144294     0.83200
N100        N  0.84624383  0.23536578  0.29140542    -0.77500
C101        C  0.83031778  0.24355570  0.26715991     0.83300
N102        N  0.82982884  0.22573347  0.24274203    -0.79200
C103        C  0.24250393  0.86104383  0.21476637     0.80700
N104        N  0.24292099  0.84096600  0.23735880    -0.77600
C105        C  0.26791537  0.83761872  0.25409066     0.83200
N106        N  0.29255582  0.85397660  0.24776304    -0.77500
C107        C  0.29220250  0.87390232  0.22509849     0.83300
N108        N  0.26718088  0.87716831  0.20890021    -0.79200
O109        O  0.02841027  0.51595616  0.60702891    -0.87800
C110        C  0.98646799  0.51476887  0.52732559     0.88200
Mg111      Mg  0.05466136  0.55289544  0.62089861     1.58100
O112        O  0.04984149  0.46935216  0.53211212    -0.87600
O113        O  0.03257489  0.46786037  0.59993902    -0.74900
C114        C  0.13631462  0.58599219  0.50246384     0.93300
O115        O  0.00016846  0.57068358  0.57103755    -0.74700
O116        O  0.12691587  0.59814429  0.52624019    -0.82200
Mg117      Mg  0.98490672  0.52621093  0.59114234     1.58000
C118        C  0.11227451  0.46789575  0.46696567     0.93200
O119        O  0.96542110  0.48415958  0.61226664    -0.80500
H120        H  0.07237573  0.43678738  0.55240682    -0.05800
C121        C  0.06114711  0.55023358  0.49419795     0.88100
O122        O  0.09729282  0.52902186  0.60632660    -0.75000
O123        O  0.99562195  0.50346488  0.55064279    -0.87700
O124        O  0.08453847  0.46427581  0.47096056    -0.80600
C125        C  0.99258175  0.43998805  0.48411748     0.93300
C126        C  0.95855738  0.45775670  0.60461997     0.93100
Mg127      Mg  0.11339152  0.51617729  0.51953295     1.58000
O128        O  0.13143417  0.55853356  0.49701027    -0.80500
O129        O  0.09778349  0.47221290  0.54064065    -0.74700
O130        O  0.98628850  0.44347920  0.51162102    -0.80600
O131        O  0.97269973  0.55161771  0.63313896    -0.82300
O132        O  0.11105154  0.59955842  0.59582061    -0.80600
C133        C  0.07315298  0.45841178  0.54179397     0.87600
O134        O  0.10262422  0.53957882  0.55902133    -0.87700
O135        O  0.06974876  0.52573090  0.50328814    -0.87800
O136        O  0.06389229  0.57371805  0.50967268    -0.74900
Mg137      Mg  0.00993189  0.45810039  0.55510872     1.58000
O138        O  0.01581112  0.45124071  0.47278536    -0.82300
H139        H  0.04711515  0.48905648  0.63697975    -0.06000
O140        O  0.04828407  0.57233368  0.57788760    -0.87500
H141        H  0.02576202  0.60605999  0.55956898    -0.05800
H142        H  0.13288961  0.51630352  0.58167960    -0.06000
C143        C  0.02493827  0.58408250  0.56942328     0.87600
C144        C  0.03624781  0.49105057  0.61574447     0.88100
C145        C  0.11204570  0.52823734  0.58222477     0.88200
H146        H  0.05007761  0.55152334  0.47292676    -0.06000
O147        O  0.00116098  0.51307485  0.50321608    -0.75000
Mg148      Mg  0.08707529  0.58433530  0.55372478     1.58000
H149        H  0.96587875  0.52705765  0.52764730    -0.06000
C150        C  0.98647304  0.57380832  0.64394181     0.93200
O151        O  0.08399198  0.59054905  0.63618198    -0.82200
C152        C  0.10621431  0.60263807  0.62354779     0.93200
O153        O  0.96871488  0.44571222  0.58106816    -0.82200
Mg154      Mg  0.04405878  0.48895387  0.48911658     1.58200
O155        O  0.01402168  0.57812151  0.63909288    -0.80500
O156        O  0.12628082  0.48921757  0.47911055    -0.82200
C157        C  0.83288088  0.35662031  0.35470456     0.80700
N158        N  0.83047746  0.33907062  0.33023252    -0.77600
C159        C  0.80392236  0.33691284  0.31596738     0.83200
N160        N  0.78003713  0.35229710  0.32631723    -0.77500
C161        C  0.78237651  0.36976030  0.35088738     0.83300
N162        N  0.80886768  0.37160656  0.36490785    -0.79200
C163        C  0.20395460  0.71000632  0.32903157     0.80700
N164        N  0.18934667  0.70289660  0.30368266    -0.77600
C165        C  0.19367409  0.71815630  0.27812939     0.83200
N166        N  0.21333035  0.74107068  0.27782803    -0.77500
C167        C  0.22828938  0.74862597  0.30301859     0.83300
N168        N  0.22368404  0.73291834  0.32853672    -0.79200
C169        C  0.86023134  0.74201373  0.71502319     0.80700
N170        N  0.83423565  0.74260943  0.73029639    -0.77600
C171        C  0.81655249  0.76713227  0.72916178     0.83200
N172        N  0.82477185  0.79084216  0.71240110    -0.77500
C173        C  0.85065816  0.79036264  0.69686682     0.83300
N174        N  0.86836017  0.76596081  0.69861720    -0.79200
O175        O  0.99828119  0.99826522  0.54617790    -0.87800
C176        C  0.95801808  0.07831450  0.53449783     0.88200
Mg177      Mg  0.01930517  0.98590114  0.58696793     1.58100
O178        O  0.02580272  0.06967034  0.49768230    -0.87600
O179        O  0.00828258  0.00161723  0.49861821    -0.74900
C180        C  0.10461957  0.10137864  0.62018043     0.93300
O181        O  0.96420978  0.03889363  0.59410414    -0.74700
O182        O  0.08953133  0.08097474  0.63262878    -0.82200
Mg183      Mg  0.95408775  0.01593008  0.54958630     1.58000
C184        C  0.08954279  0.13478162  0.49962367     0.93200
O185        O  0.93971991  0.99163303  0.50725755    -0.80500
H186        H  0.05143351  0.04772392  0.46871079    -0.05800
C187        C  0.02967329  0.11309647  0.57738542     0.88100
O188        O  0.06496099  0.99827700  0.56788010    -0.75000
O189        O  0.96793822  0.05418710  0.52560318    -0.87700
O190        O  0.06226929  0.13095381  0.49317374    -0.80600
C191        C  0.97375448  0.11529031  0.45857046     0.93300
C192        C  0.93647597  0.99595792  0.47949477     0.93100
Mg193      Mg  0.08447150  0.08405790  0.55005611     1.58000
O194        O  0.10200334  0.10688352  0.59247291    -0.80500
O195        O  0.07295298  0.06111857  0.50590754    -0.74700
O196        O  0.96720133  0.08796042  0.46252466    -0.80600
O197        O  0.93827829  0.97654237  0.57536161    -0.82300
O198        O  0.07090587  0.01284124  0.63680256    -0.80600
C199        C  0.04999786  0.05935015  0.48966356     0.87600
O200        O  0.06956594  0.04631556  0.57443158    -0.87700
O201        O  0.04059001  0.10243780  0.55445635    -0.87800
O202        O  0.02926217  0.09876881  0.60170839    -0.74900
Mg203      Mg  0.98755570  0.04574437  0.48290583     1.58000
O204        O  0.99485737  0.12779545  0.47249835    -0.82300
H205        H  0.01976665  0.96617749  0.52403603    -0.06000
O206        O  0.01131948  0.03042629  0.60296630    -0.87500
H207        H  0.98514622  0.05205061  0.63183552    -0.05800
H208        H  0.10204398  0.02139883  0.55710222    -0.06000
C209        C  0.98694047  0.04056390  0.61070581     0.87600
C210        C  0.00896681  0.98760501  0.52314037     0.88100
C211        C  0.07998446  0.02212315  0.56640556     0.88200
H212        H  0.01924168  0.13474177  0.57643051    -0.06000
O213        O  0.97341649  0.10198160  0.53377043    -0.75000
Mg214      Mg  0.04967594  0.05463734  0.61710342     1.58000
H215        H  0.93603225  0.07906757  0.54413378    -0.06000
C216        C  0.94887736  0.96322417  0.59779205     0.93200
O217        O  0.04339646  0.97240561  0.62938314    -0.82200
C218        C  0.06529694  0.98548349  0.64159619     0.93200
O219        O  0.94773513  0.01851248  0.46655386    -0.82200
Mg220      Mg  0.01886665  0.11417709  0.51407316     1.58200
O221        O  0.97554492  0.96751396  0.60633117    -0.80500
O222        O  0.10089386  0.12310230  0.52271638    -0.82200
C223        C  0.20272257  0.83124604  0.71543311     0.80700
N224        N  0.19156604  0.80505930  0.70532476    -0.77600
C225        C  0.20540507  0.77893912  0.71138146     0.83200
N226        N  0.23103240  0.77931030  0.72704666    -0.77500
C227        C  0.24232073  0.80522797  0.73744194     0.83300
N228        N  0.22789960  0.83129960  0.73206106    -0.79200
C229        C  0.23453567  0.20788044  0.35259817     0.80700
N230        N  0.23607835  0.22656436  0.32898832    -0.77600
C231        C  0.26166442  0.22859890  0.31299813     0.83200
N232        N  0.28575758  0.21226381  0.32110158    -0.77500
C233        C  0.28440273  0.19375554  0.34496841     0.83300
N234        N  0.25873192  0.19193853  0.36067022    -0.79200
C235        C  0.86331045  0.84932459  0.33189823     0.80700
N236        N  0.87803737  0.85737684  0.30686113    -0.77600
C237        C  0.87256613  0.84358692  0.28065229     0.83200
N238        N  0.85276572  0.82101502  0.27970247    -0.77500
C239        C  0.83794116  0.81267326  0.30458920     0.83300
N240        N  0.84281871  0.82715412  0.33073880    -0.79200
O241        O  0.49564678  0.50052671  0.04252748    -0.87800
C242        C  0.45668798  0.58189295  0.03521619     0.88200
Mg243      Mg  0.51835532  0.48632130  0.08137225     1.58100
O244        O  0.52370676  0.57521676  0.99639542    -0.87600
O245        O  0.50632303  0.50695228  0.99541815    -0.74900
C246        C  0.60499220  0.59917046  0.11733910     0.93300
O247        O  0.46423941  0.53987519  0.09313273    -0.74700
O248        O  0.59079424  0.57755262  0.12865207    -0.82200
Mg249      Mg  0.45188730  0.51881260  0.04829894     1.58000
C250        C  0.58794303  0.64013986  0.00029130     0.93200
O251        O  0.43554580  0.49633718  0.00520346    -0.80500
H252        H  0.54822193  0.55574409  0.96474965    -0.05800
C253        C  0.52917846  0.61393291  0.07773896     0.88100
O254        O  0.56312728  0.49942932  0.06053519    -0.75000
O255        O  0.46611832  0.55794726  0.02530768    -0.87700
O256        O  0.56065899  0.63715939  0.99322238    -0.80600
C257        C  0.47056743  0.62180041  0.96010120     0.93300
C258        C  0.43340712  0.50179338  0.97748973     0.93100
Mg259      Mg  0.58304431  0.58642215  0.04739033     1.58000
O260        O  0.60126530  0.60694921  0.09039670    -0.80500
O261        O  0.57107027  0.56639400  0.00208023    -0.74700
O262        O  0.46434404  0.59430718  0.96368853    -0.80600
O263        O  0.43603364  0.47880601  0.07426432    -0.82300
O264        O  0.57265331  0.50972114  0.12937552    -0.80600
C265        C  0.54756557  0.56573121  0.98662579     0.87600
O266        O  0.56840997  0.54707010  0.06942821    -0.87700
O267        O  0.53961135  0.60511722  0.05381029    -0.87800
O268        O  0.52965331  0.59793682  0.10103749    -0.74900
Mg269      Mg  0.48535499  0.55147462  0.98207691     1.58000
O270        O  0.49187442  0.63416499  0.97388453    -0.82300
H271        H  0.51703219  0.46977166  0.01851909    -0.06000
O272        O  0.51149711  0.53000605  0.09960505    -0.87500
H273        H  0.48703864  0.55090298  0.13041318    -0.05800
H274        H  0.59970442  0.52301519  0.04889057    -0.06000
C275        C  0.48767676  0.54029494  0.10880701     0.87600
C276        C  0.50635717  0.49129245  0.01890029     0.88100
C277        C  0.57817262  0.52330594  0.05947470     0.88200
H278        H  0.51848942  0.63551707  0.07862236    -0.06000
O279        O  0.47213070  0.60556283  0.03460024    -0.75000
Mg280      Mg  0.55049295  0.55280110  0.11325223     1.58000
H281        H  0.43494983  0.58249123  0.04560179    -0.06000
C282        C  0.44798216  0.46522036  0.09596055     0.93200
O283        O  0.54441776  0.47003550  0.12148746    -0.82200
C284        C  0.56725396  0.48211362  0.13290714     0.93200
O285        O  0.44603000  0.52431674  0.96577320    -0.82200
Mg286      Mg  0.51712925  0.61904514  0.01443038     1.58200
O287        O  0.47538788  0.46851405  0.10225565    -0.80500
O288        O  0.59887178  0.62691259  0.02273878    -0.82200
C289        C  0.35207010  0.35941302  0.82719221     0.80700
N290        N  0.33619720  0.33362188  0.82760973    -0.77600
C291        C  0.33653876  0.31529432  0.80331399     0.83200
N292        N  0.35278622  0.32279743  0.77897608    -0.77500
C293        C  0.36867802  0.34835108  0.77871523     0.83300
N294        N  0.36822845  0.36630101  0.80281759    -0.79200
C295        C  0.71361563  0.33251984  0.20328729     0.80700
N296        N  0.73615439  0.33014730  0.22313896    -0.77600
C297        C  0.74957555  0.30334499  0.22738035     0.83200
N298        N  0.73977718  0.27895045  0.21238015    -0.77500
C299        C  0.71677693  0.28105013  0.19306612     0.83300
N300        N  0.70395886  0.30803421  0.18861610    -0.79200
C301        C  0.74207632  0.72297932  0.86399241     0.80700
N302        N  0.74092082  0.73706305  0.83733632    -0.77600
C303        C  0.76537351  0.73758668  0.81954918     0.83200
N304        N  0.79066977  0.72373590  0.82831545    -0.77500
C305        C  0.79195855  0.70951700  0.85480944     0.83300
N306        N  0.76754263  0.70936770  0.87253424    -0.79200
O307        O  0.04109931  0.57213618  0.06647427    -0.87800
C308        C  0.03934701  0.61195819  0.98604225     0.88200
Mg309      Mg  0.07849627  0.54744222  0.08116352     1.58100
O310        O  0.99714767  0.54699657  0.99107447    -0.87600
O311        O  0.99368338  0.56455913  0.05924615    -0.74900
C312        C  0.11498050  0.45790935  0.96875140     0.93300
O313        O  0.09470858  0.60120667  0.02977846    -0.74700
O314        O  0.12636980  0.47175650  0.99062225    -0.82200
Mg315      Mg  0.04972339  0.61586961  0.04940326     1.58000
C316        C  0.99841677  0.48306332  0.92491008     0.93200
O317        O  0.00659432  0.63437116  0.07004243    -0.80500
H318        H  0.96409237  0.52380985  0.00952366    -0.05800
C319        C  0.07905971  0.53629433  0.95372440     0.88100
O320        O  0.05637003  0.50356055  0.06679587    -0.75000
O321        O  0.02771024  0.60332371  0.00945837    -0.87700
O322        O  0.99358900  0.51081696  0.92885234    -0.80600
C323        C  0.96540742  0.60265937  0.94385013     0.93300
C324        C  0.97925450  0.63863926  0.06399569     0.93100
Mg325      Mg  0.04512811  0.48387442  0.97953535     1.58000
O326        O  0.08829854  0.46291895  0.96055135    -0.80500
O327        O  0.00015522  0.49895582  0.99864533    -0.74700
O328        O  0.96818040  0.60871574  0.97138291    -0.80600
O329        O  0.07437420  0.62995483  0.09087624    -0.82300
O330        O  0.12576048  0.49011455  0.05917643    -0.80600
C331        C  0.98604429  0.52343640  0.99985942     0.87600
O332        O  0.06698192  0.49683402  0.01967579    -0.87700
O333        O  0.05444780  0.52736739  0.96210214    -0.87800
O334        O  0.10188382  0.53449894  0.97020477    -0.74900
Mg335      Mg  0.98337537  0.58639986  0.01440944     1.58000
O336        O  0.97833846  0.58047555  0.93187787    -0.82300
H337        H  0.01533873  0.55234705  0.09677558    -0.06000
O338        O  0.09845413  0.55323558  0.03815137    -0.87500
H339        H  0.13096719  0.57657477  0.01882863    -0.05800
H340        H  0.04396645  0.46711055  0.04329653    -0.06000
C341        C  0.10910501  0.57683624  0.02881951     0.87600
C342        C  0.01676912  0.56295135  0.07529312     0.88100
C343        C  0.05559009  0.48807948  0.04313059     0.88200
H344        H  0.08099704  0.54674723  0.93226665    -0.06000
O345        O  0.03911266  0.59633213  0.96243569    -0.75000
Mg346      Mg  0.11160424  0.51307225  0.01554456     1.58000
H347        H  0.05099155  0.63299244  0.98594642    -0.06000
C348        C  0.09489467  0.61688260  0.10519944     0.93200
O349        O  0.11700018  0.52020406  0.09757618    -0.82200
C350        C  0.12860918  0.49684475  0.08655596     0.93200
O351        O  0.96750204  0.62701646  0.04101456    -0.82200
Mg352      Mg  0.01683765  0.55267075  0.94785962     1.58200
O353        O  0.10054443  0.58930474  0.10117758    -0.80500
O354        O  0.01996771  0.46994628  0.93776329    -0.82200
C355        C  0.83044326  0.70196412  0.21372205     0.80700
N356        N  0.80567220  0.68710239  0.20513865    -0.77600
C357        C  0.77966314  0.69088110  0.22000269     0.83200
N358        N  0.77877346  0.70906697  0.24399325    -0.77500
C359        C  0.80328488  0.72403657  0.25280811     0.83300
N360        N  0.82912187  0.72095288  0.23728916    -0.79200
C361        C  0.20951082  0.36517472  0.24703651     0.80700
N362        N  0.20051472  0.37430593  0.27428272    -0.77600
C363        C  0.20637603  0.35833094  0.29901649     0.83200
N364        N  0.22146750  0.33235602  0.29649521    -0.77500
C365        C  0.23109833  0.32292125  0.26938217     0.83300
N366        N  0.22531019  0.33943461  0.24463608    -0.79200
C367        C  0.85232959  0.33200927  0.86746974     0.80700
N368        N  0.83105399  0.32858243  0.84634186    -0.77600
C369        C  0.81711140  0.30190977  0.84321749     0.83200
N370        N  0.82508325  0.27857084  0.86065478    -0.77500
C371        C  0.84678485  0.28148812  0.88127435     0.83300
N372        N  0.86016322  0.30834581  0.88449370    -0.79200
O373        O  0.54399557  0.99111254  0.99814811    -0.87800
C374        C  0.53747528  0.95694889  0.08128855     0.88200
Mg375      Mg  0.58297588  0.01375145  0.98299151     1.58100
O376        O  0.49649363  0.02206413  0.06858067    -0.87600
O377        O  0.49619556  0.99875051  0.00240471    -0.74900
C378        C  0.61473425  0.10828530  0.09167685     0.93300
O379        O  0.59535318  0.96314331  0.03839569    -0.74700
O380        O  0.62805176  0.09358712  0.07137649    -0.82200
Mg381      Mg  0.55072841  0.94840970  0.01830637     1.58000
C382        C  0.49666026  0.09120895  0.12735996     0.93200
O383        O  0.50788825  0.92903539  0.99785652    -0.80500
H384        H  0.46565201  0.04392499  0.04532088    -0.05800
C385        C  0.57631614  0.03353088  0.10851057     0.88100
O386        O  0.56152408  0.05903956  0.99208418    -0.75000
O387        O  0.52738498  0.96406407  0.05673862    -0.87700
O388        O  0.49110383  0.06340949  0.12655037    -0.80600
C389        C  0.46143102  0.97159471  0.11958744     0.93300
C390        C  0.48054906  0.92516727  0.00431793     0.93100
Mg391      Mg  0.54577394  0.08416139  0.07599338     1.58000
O392        O  0.58719755  0.10461796  0.09688026    -0.80500
O393        O  0.50195124  0.06863942  0.05522449    -0.74700
O394        O  0.46558679  0.96308555  0.09285045    -0.80600
O395        O  0.57597330  0.93181612  0.97795048    -0.82300
O396        O  0.63255988  0.06965699  0.00383907    -0.80600
C397        C  0.48692871  0.04475887  0.05632029     0.87600
O398        O  0.57018229  0.06806158  0.03903040    -0.87700
O399        O  0.55263208  0.04224233  0.09773011    -0.87800
O400        O  0.60030415  0.03345535  0.09363113    -0.74900
Mg401      Mg  0.48347358  0.98110364  0.04868626     1.58000
O402        O  0.47422031  0.99450804  0.13005158    -0.82300
H403        H  0.51980197  0.00827643  0.96521391    -0.06000
O404        O  0.60088639  0.01030005  0.02708949    -0.87500
H405        H  0.63188951  0.98728456  0.04904158    -0.05800
H406        H  0.55017799  0.09760438  0.01262054    -0.06000
C407        C  0.61043744  0.98705445  0.03831172     0.87600
C408        C  0.52014616  0.99947641  0.98745040     0.88100
C409        C  0.56061765  0.07605826  0.01458486     0.88200
H410        H  0.57639553  0.02474765  0.13091701    -0.06000
O411        O  0.53602851  0.97428052  0.10362125    -0.75000
Mg412      Mg  0.61393606  0.05113415  0.04779470     1.58000
H413        H  0.54863870  0.93571698  0.08359326    -0.06000
C414        C  0.59766708  0.94339674  0.96398610     0.93200
O415        O  0.62307321  0.03896936  0.96625460    -0.82200
C416        C  0.63615471  0.06169999  0.97682873     0.93200
O417        O  0.46853746  0.93859332  0.02615646    -0.82200
Mg418      Mg  0.51400968  0.01962553  0.11290547     1.58200
O419        O  0.60518289  0.97044798  0.96774335    -0.80500
O420        O  0.51885166  0.10229114  0.11388428    -0.82200
C421        C  0.71884402  0.19988046  0.82933357     0.80700
N422        N  0.73425917  0.22585877  0.82919671    -0.77600
C423        C  0.73553132  0.24246995  0.80393170     0.83200
N424        N  0.72137058  0.23298991  0.77906377    -0.77500
C425        C  0.70604533  0.20700089  0.77900408     0.83300
N426        N  0.70518149  0.19049375  0.80418581    -0.79200
C427        C  0.35537341  0.24222372  0.20650690     0.80700
N428        N  0.36283508  0.26670675  0.19077852    -0.77600
C429        C  0.34617028  0.29173264  0.19191695     0.83200
N430        N  0.32180451  0.29226525  0.20982564    -0.77500
C431        C  0.31410201  0.26775588  0.22589550     0.83300
N432        N  0.33090878  0.24261452  0.22410558    -0.79200
C433        C  0.33077664  0.86448001  0.85762895     0.80700
N434        N  0.32804277  0.84495661  0.83470467    -0.77600
C435        C  0.30220889  0.84388461  0.81906694     0.83200
N436        N  0.27901777  0.86153622  0.82716521    -0.77500
C437        C  0.28143535  0.88057149  0.85045203     0.83300
N438        N  0.30751024  0.88194921  0.86534443    -0.79200
O439        O  0.57165559  0.51892070  0.49980456    -0.87800
C440        C  0.48959503  0.52696552  0.46189625     0.88200
Mg441      Mg  0.58578956  0.48013759  0.52338315     1.58100
O442        O  0.49936155  0.56830289  0.52733457    -0.87600
O443        O  0.56645229  0.56679255  0.50750849    -0.74900
C444        C  0.47372825  0.45072503  0.61261875     0.93300
O445        O  0.53164235  0.46778227  0.46999683    -0.74700
O446        O  0.49431170  0.43812652  0.59791271    -0.82200
Mg447      Mg  0.55279124  0.51216221  0.45636666     1.58000
C448        C  0.43642762  0.56914470  0.59331786     0.93200
O449        O  0.57504916  0.55440438  0.43829901    -0.80500
H450        H  0.52098285  0.59974711  0.54999872    -0.05800
C451        C  0.45889772  0.48850785  0.53625920     0.88100
O452        O  0.57412658  0.50195185  0.56804772    -0.75000
O453        O  0.51391168  0.53644569  0.47038251    -0.87700
O454        O  0.43911616  0.57454730  0.56564652    -0.80600
C455        C  0.45213327  0.60594541  0.47600248     0.93300
C456        C  0.56903248  0.58181624  0.43430550     0.93100
Mg457      Mg  0.48846260  0.51960715  0.58880954     1.58000
O458        O  0.46706252  0.47800608  0.60882668    -0.80500
O459        O  0.50984931  0.56360605  0.57451298    -0.74700
O460        O  0.47869218  0.60102527  0.46727639    -0.80600
O461        O  0.59296884  0.48567314  0.44097235    -0.82300
O462        O  0.56142309  0.43237967  0.57823983    -0.80600
C463        C  0.51015328  0.57835704  0.55048119     0.87600
O464        O  0.52645118  0.49518310  0.57389632    -0.87700
O465        O  0.46853911  0.51235783  0.54603705    -0.87800
O466        O  0.47423886  0.46474567  0.53669313    -0.74900
Mg467      Mg  0.52155568  0.58056087  0.48744809     1.58000
O468        O  0.44091379  0.59181346  0.49772195    -0.82300
H469        H  0.60318753  0.54341576  0.51911793    -0.06000
O470        O  0.54182279  0.46274125  0.51731973    -0.87500
H471        H  0.52082698  0.43119547  0.49409916    -0.05800
H472        H  0.55141282  0.51487480  0.60491322    -0.06000
C473        C  0.53140367  0.45279106  0.49392029     0.87600
C474        C  0.58151986  0.54290706  0.50892983     0.88100
C475        C  0.55054827  0.50413255  0.58336981     0.88200
H476        H  0.43720066  0.48811947  0.52604885    -0.06000
O477        O  0.46639205  0.52913006  0.47791080    -0.75000
Mg478      Mg  0.51896472  0.45110967  0.55692755     1.58000
H479        H  0.48819928  0.51583083  0.44062369    -0.06000
C480        C  0.60715856  0.46466183  0.45353019     0.93200
O481        O  0.60110440  0.43947784  0.54968575    -0.82200
C482        C  0.58865064  0.42748523  0.57211152     0.93200
O483        O  0.54650926  0.59400915  0.44636421    -0.82200
Mg484      Mg  0.45521512  0.55132465  0.52276790     1.58200
O485        O  0.60346163  0.45850737  0.48093169    -0.80500
O486        O  0.44935451  0.54692120  0.60519291    -0.82200
C487        C  0.70854885  0.73671126  0.36117486     0.80700
N488        N  0.69988705  0.76235597  0.37449945    -0.77600
C489        C  0.71474820  0.78808132  0.37010853     0.83200
N490        N  0.73885966  0.78808742  0.35200816    -0.77500
C491        C  0.74787862  0.76257197  0.33839173     0.83300
N492        N  0.73252949  0.73681481  0.34275517    -0.79200
C493        C  0.34992895  0.71041543  0.74172531     0.80700
N494        N  0.36667498  0.70319838  0.76559759    -0.77600
C495        C  0.36666356  0.72049118  0.79026462     0.83200
N496        N  0.34925527  0.74511352  0.79114737    -0.77500
C497        C  0.33226204  0.75263468  0.76741994     0.83300
N498        N  0.33266995  0.73529541  0.74249653    -0.79200
C499        C  0.73914459  0.35295043  0.71234339     0.80700
N500        N  0.76333702  0.36820490  0.70302586    -0.77600
C501        C  0.78981925  0.36537825  0.71700159     0.83200
N502        N  0.79183262  0.34709492  0.74099186    -0.77500
C503        C  0.76768076  0.33164253  0.75059405     0.83300
N504        N  0.74138362  0.33427389  0.73593746    -0.79200
O505        O  0.54698542  0.07734594  0.56563716    -0.87800
C506        C  0.53973013  0.11648037  0.48440684     0.88200
Mg507      Mg  0.58525776  0.05284310  0.57918865     1.58100
O508        O  0.49847692  0.05131665  0.49405254    -0.87600
O509        O  0.49910387  0.07061978  0.56154850    -0.74900
C510        C  0.61580641  0.96437277  0.46475394     0.93300
O511        O  0.59830202  0.10641551  0.52603135    -0.74700
O512        O  0.62862842  0.97797765  0.48593750    -0.82200
Mg513      Mg  0.55422088  0.12092225  0.54754321     1.58000
C514        C  0.49583456  0.98572451  0.43120918     0.93200
O515        O  0.51223138  0.13963609  0.57001977    -0.80500
H516        H  0.46735867  0.02821534  0.51567532    -0.05800
C517        C  0.57801662  0.04143215  0.45236927     0.88100
O518        O  0.56280856  0.00878549  0.56670333    -0.75000
O519        O  0.52991270  0.10801590  0.50869550    -0.87700
O520        O  0.49090109  0.01347854  0.43453501    -0.80600
C521        C  0.46159823  0.10413445  0.44730848     0.93300
C522        C  0.48477052  0.14423215  0.56489110     0.93100
Mg523      Mg  0.54670443  0.98877562  0.48097768     1.58000
O524        O  0.58843878  0.96879265  0.45888057    -0.80500
O525        O  0.50301072  0.00361766  0.50306381    -0.74700
O526        O  0.46638034  0.11169511  0.47422576    -0.80600
O527        O  0.58055978  0.13518558  0.58793682    -0.82300
O528        O  0.63248098  0.99667703  0.55469993    -0.80600
C529        C  0.48852114  0.02788052  0.50444242     0.87600
O530        O  0.57106778  0.00235972  0.51914559    -0.87700
O531        O  0.55411519  0.03204363  0.46221163    -0.87800
O532        O  0.60187249  0.04010272  0.46737320    -0.74900
Mg533      Mg  0.48584936  0.09115917  0.51679264     1.58000
O534        O  0.47509294  0.08238378  0.43525305    -0.82300
H535        H  0.52283532  0.05861665  0.59787409    -0.06000
O536        O  0.60317028  0.05870336  0.53527814    -0.87500
H537        H  0.63446033  0.08212140  0.51417629    -0.05800
H538        H  0.55008237  0.97207914  0.54387664    -0.06000
C539        C  0.61306520  0.08227384  0.52507231     0.87600
C540        C  0.52312291  0.06874492  0.57612294     0.88100
C541        C  0.56121288  0.99327200  0.54314667     0.88200
H542        H  0.57842867  0.05195453  0.43076885    -0.06000
O543        O  0.53784236  0.10055456  0.46107937    -0.75000
Mg544      Mg  0.61513808  0.01897186  0.51193894     1.58000
H545        H  0.55107470  0.13768202  0.48317909    -0.06000
C546        C  0.60177558  0.12237175  0.60148502     0.93200
O547        O  0.62463987  0.02517969  0.59434808    -0.82200
C548        C  0.63627884  0.00232737  0.58224234     0.93200
O549        O  0.47184194  0.13249200  0.54264150    -0.82200
Mg550      Mg  0.51517460  0.05610246  0.44959455     1.58200
O551        O  0.60796867  0.09495754  0.59728867    -0.80500
O552        O  0.51904058  0.97345882  0.44174467    -0.82200
C553        C  0.35179416  0.82734236  0.37048744     0.80700
N554        N  0.35849921  0.80230891  0.38592007    -0.77600
C555        C  0.34379630  0.77648457  0.38127656     0.83200
N556        N  0.32156524  0.77570664  0.36102773    -0.77500
C557        C  0.31437663  0.80048870  0.34528682     0.83300
N558        N  0.32974056  0.82628983  0.34980361    -0.79200
C559        C  0.33448997  0.20060332  0.71439322     0.80700
N560        N  0.30976153  0.18571116  0.70549313    -0.77600
C561        C  0.28350654  0.18949745  0.71999208     0.83200
N562        N  0.28240099  0.20807374  0.74377103    -0.77500
C563        C  0.30682128  0.22316031  0.75283689     0.83300
N564        N  0.33281963  0.21988992  0.73771438    -0.79200
C565        C  0.70267186  0.85621753  0.73183907     0.80700
N566        N  0.68726311  0.86509806  0.75627667    -0.77600
C567        C  0.69091518  0.85107280  0.78273339     0.83200
N568        N  0.71001047  0.82780659  0.78437343    -0.77500
C569        C  0.72563386  0.81878662  0.76014584     0.83300
N570        N  0.72232609  0.83333040  0.73386936    -0.79200
C571        C  0.30403935  0.24407581  0.77785354     0.80700
N572        N  0.28091062  0.24122113  0.79706133    -0.77600
C573        C  0.27652096  0.26155464  0.81896336     0.83200
N574        N  0.29512646  0.28516463  0.82138711    -0.77500
C575        C  0.31824711  0.28829907  0.80229228     0.83300
N576        N  0.32259069  0.26776363  0.78039770    -0.79200
C577        C  0.66558406  0.89334625  0.66664524    -0.13800
C578        C  0.68847705  0.91163842  0.65612744     0.16500
C579        C  0.71703463  0.90920495  0.66858680     0.02800
C580        C  0.72194472  0.88948135  0.69223976    -0.12300
C581        C  0.69856889  0.87240988  0.70377323    -0.03400
C582        C  0.67039072  0.87390837  0.69039926     0.02100
C583        C  0.68056059  0.93617306  0.63578672     0.08900
N584        N  0.74080828  0.92748647  0.65820313     0.65300
H585        H  0.74369686  0.88854603  0.70254518     0.18200
N586        N  0.64628081  0.85639002  0.70134238     0.75700
H587        H  0.64345955  0.89526758  0.65729813     0.09700
C588        C  0.67538755  0.93111339  0.60542911     0.03400
C589        C  0.66224539  0.95341583  0.58810745    -0.05300
C590        C  0.65369297  0.98092707  0.60064953    -0.23700
C591        C  0.66019647  0.98624460  0.63102456     0.12600
C592        C  0.67358809  0.96394702  0.64811988    -0.12900
N593        N  0.68250039  0.90306681  0.59218028     0.64300
H594        H  0.65777742  0.94863638  0.56489304     0.12200
N595        N  0.65219849  0.01353764  0.64533353     0.61000
H596        H  0.67722152  0.96783122  0.67166889     0.08300
O597        O  0.64201725  0.83061514  0.69103879    -0.40500
O598        O  0.62717255  0.86798398  0.71835718    -0.39700
O599        O  0.75091947  0.94789624  0.67458191    -0.39700
O600        O  0.75405988  0.92089274  0.63433826    -0.37400
O601        O  0.62818675  0.01513597  0.65976966    -0.38300
O602        O  0.67132779  0.03381998  0.64819852    -0.34500
O603        O  0.66203035  0.88502597  0.58582029    -0.35900
O604        O  0.70855189  0.89817606  0.58301224    -0.40100
C605        C  0.42131465  0.18597812  0.60272674    -0.13800
C606        C  0.43136594  0.18656058  0.63216930     0.16500
C607        C  0.46033313  0.17677510  0.63854675     0.02800
C608        C  0.47805510  0.16486431  0.61586185    -0.12300
C609        C  0.46729907  0.16212176  0.58663373    -0.03400
C610        C  0.43895076  0.17395118  0.57995765     0.02100
C611        C  0.40950014  0.19163996  0.65622315     0.08900
N612        N  0.47145147  0.17743771  0.66826164     0.65300
H613        H  0.49980610  0.15620934  0.62162703     0.18200
N614        N  0.42735170  0.17317029  0.55043149     0.75700
H615        H  0.39892947  0.19338214  0.59765123     0.09700
C616        C  0.39760823  0.21997674  0.66250970     0.03400
C617        C  0.37431869  0.22282155  0.68314020    -0.05300
C618        C  0.36216707  0.19759678  0.69698808    -0.23700
C619        C  0.37465213  0.16937754  0.69115658     0.12600
C620        C  0.39823030  0.16669411  0.67105346    -0.12900
N621        N  0.40821325  0.24577293  0.64732433     0.64300
H622        H  0.36464760  0.24462197  0.68716656     0.12200
N623        N  0.36351673  0.14320485  0.70533367     0.61000
H624        H  0.40723807  0.14475708  0.66623509     0.08300
O625        O  0.40799640  0.15406476  0.54366010    -0.40500
O626        O  0.43222854  0.19468440  0.53309944    -0.39700
O627        O  0.47323352  0.15359517  0.68295473    -0.39700
O628        O  0.48426033  0.20054010  0.67769621    -0.37400
O629        O  0.35313678  0.12235468  0.68969514    -0.38300
O630        O  0.36989090  0.13832772  0.73218833    -0.34500
O631        O  0.39527661  0.25450295  0.62405869    -0.35900
O632        O  0.42703859  0.26242375  0.65970015    -0.40100
C633        C  0.39271559  0.90166932  0.36188191    -0.13800
C634        C  0.40890076  0.90231847  0.38847868     0.16500
C635        C  0.40425919  0.87990740  0.40976172     0.02800
C636        C  0.38494432  0.85644926  0.40360816    -0.12300
C637        C  0.36947273  0.85475097  0.37649474    -0.03400
C638        C  0.37292978  0.87821494  0.35578241     0.02100
C639        C  0.43132480  0.92575793  0.39396422     0.08900
N640        N  0.41892826  0.88084014  0.43791323     0.65300
H641        H  0.38216889  0.83931623  0.42036645     0.18200
N642        N  0.35748700  0.87808679  0.32809533     0.75700
H643        H  0.39595710  0.91908998  0.34551358     0.09700
C644        C  0.46185859  0.91909167  0.39253107     0.03400
C645        C  0.48260931  0.93933707  0.40377964    -0.05300
C646        C  0.47356483  0.96677412  0.41585527    -0.23700
C647        C  0.44299149  0.97426588  0.41522139     0.12600
C648        C  0.42220980  0.95361954  0.40459270    -0.12900
N649        N  0.47201189  0.89167086  0.37990259     0.64300
H650        H  0.50596334  0.93335941  0.40336191     0.12200
N651        N  0.43241274  0.00182877  0.42713370     0.61000
H652        H  0.39870918  0.95885090  0.40588131     0.08300
O653        O  0.33404232  0.89322843  0.32529952    -0.40500
O654        O  0.36967290  0.86695148  0.30536497    -0.39700
O655        O  0.40868641  0.89719226  0.45834841    -0.39700
O656        O  0.43852720  0.86170548  0.44398551    -0.37400
O657        O  0.42729915  0.02338235  0.40991998    -0.38300
O658        O  0.42401242  0.00319556  0.45388163    -0.34500
O659        O  0.47262904  0.88868086  0.35201180    -0.35900
O660        O  0.48495471  0.87274520  0.39604404    -0.40100
C661        C  0.67770910  0.91447001  0.43442228    -0.13800
C662        C  0.66156880  0.89563990  0.41571883     0.16500
C663        C  0.63104796  0.90050984  0.41170544     0.02800
C664        C  0.61686428  0.92361925  0.42701924    -0.12300
C665        C  0.63257212  0.94196729  0.44692290    -0.03400
C666        C  0.66358337  0.93743632  0.45012161     0.02100
C667        C  0.67594979  0.86864969  0.40385024     0.08900
N668        N  0.61402335  0.88140162  0.39293116     0.65300
H669        H  0.59314359  0.92648592  0.42396629     0.18200
N670        N  0.68098476  0.95522258  0.46982454     0.75700
H671        H  0.70125117  0.91052050  0.43780627     0.09700
C672        C  0.69409944  0.86932898  0.37839484     0.03400
C673        C  0.70776135  0.84310606  0.36841150    -0.05300
C674        C  0.70332155  0.81601340  0.38338603    -0.23700
C675        C  0.68567074  0.81574101  0.40945767     0.12600
C676        C  0.67208359  0.84193333  0.41926729    -0.12900
N677        N  0.69787481  0.89620601  0.36189409     0.64300
H678        H  0.72092010  0.84376193  0.34817596     0.12200
N679        N  0.68195211  0.78927737  0.42670297     0.61000
H680        H  0.65861293  0.84151878  0.43932263     0.08300
O681        O  0.69590481  0.97665074  0.45958951    -0.40500
O682        O  0.68583330  0.94619980  0.49592612    -0.39700
O683        O  0.59960867  0.86008578  0.40408927    -0.39700
O684        O  0.61042680  0.88801650  0.36593068    -0.37400
O685        O  0.65672689  0.77722405  0.42854641    -0.38300
O686        O  0.70262341  0.78062812  0.44350702    -0.34500
O687        O  0.72253411  0.90947407  0.36233639    -0.35900
O688        O  0.67842430  0.90388231  0.34326460    -0.40100
C689        C  0.35598227  0.64215833  0.69387165    -0.13800
C690        C  0.37547112  0.65227115  0.67168562     0.16500
C691        C  0.38181439  0.68301743  0.66992980     0.02800
C692        C  0.37026096  0.70259615  0.69134789    -0.12300
C693        C  0.35285319  0.69195517  0.71485917    -0.03400
C694        C  0.34495147  0.66164469  0.71556044     0.02100
C695        C  0.38999968  0.63034556  0.65151074     0.08900
N696        N  0.40220033  0.69423496  0.64830647     0.65300
H697        H  0.37708157  0.72577571  0.69107174     0.18200
N698        N  0.32668898  0.65020542  0.73890741     0.75700
H699        H  0.35011801  0.61874422  0.69498122     0.09700
C700        C  0.40618289  0.60603190  0.66296218     0.03400
C701        C  0.42007710  0.58596958  0.64360832    -0.05300
C702        C  0.41871068  0.58961920  0.61259466    -0.23700
C703        C  0.40179556  0.61363930  0.60112287     0.12600
C704        C  0.38768025  0.63360389  0.62059762    -0.12900
N705        N  0.40996934  0.60220493  0.69427528     0.64300
H706        H  0.43292863  0.56791265  0.65316702     0.12200
N707        N  0.39846903  0.61807577  0.56985147     0.61000
H708        H  0.37470195  0.65180207  0.61145844     0.08300
O709        O  0.33813190  0.63469614  0.75926167    -0.40500
O710        O  0.29880733  0.65157849  0.73661116    -0.39700
O711        O  0.39298780  0.71112049  0.62791145    -0.39700
O712        O  0.42975356  0.69119732  0.65233040    -0.37400
O713        O  0.37760315  0.60528429  0.55623726    -0.38300
O714        O  0.41278093  0.63855726  0.55710381    -0.34500
O715        O  0.39811502  0.58028494  0.70716517    -0.35900
O716        O  0.42896358  0.61763924  0.70790841    -0.40100
C717        C  0.42517031  0.66776165  0.42429924    -0.13800
C718        C  0.39828117  0.67565882  0.43795002     0.16500
C719        C  0.38886506  0.66025163  0.46344194     0.02800
C720        C  0.40660553  0.63753076  0.47507570    -0.12300
C721        C  0.43375269  0.62942961  0.46161920    -0.03400
C722        C  0.44290876  0.64486995  0.43577183     0.02100
C723        C  0.38084728  0.70053221  0.42544812     0.08900
N724        N  0.36099862  0.66688670  0.47728199     0.65300
H725        H  0.39885064  0.62610173  0.49484873     0.18200
N726        N  0.46994034  0.63757835  0.42073257     0.75700
H727        H  0.43252536  0.67962314  0.40460632     0.09700
C728        C  0.37928933  0.72831336  0.43993285     0.03400
C729        C  0.36551622  0.75234355  0.42579543    -0.05300
C730        C  0.35362365  0.74937263  0.39709653    -0.23700
C731        C  0.35413756  0.72116992  0.38316672     0.12600
C732        C  0.36754849  0.69702329  0.39754257    -0.12900
N733        N  0.39351545  0.73304742  0.46792843     0.64300
H734        H  0.36534609  0.77386451  0.43680928     0.12200
N735        N  0.34389806  0.71732574  0.35335871     0.61000
H736        H  0.36889763  0.67571023  0.38622189     0.08300
O737        O  0.49231751  0.65417711  0.42368754    -0.40500
O738        O  0.46987058  0.61788566  0.40070477    -0.39700
O739        O  0.33719266  0.65990020  0.46431235    -0.39700
O740        O  0.36022157  0.67461928  0.50425628    -0.37400
O741        O  0.35987169  0.72591936  0.33195272    -0.38300
O742        O  0.32160003  0.70115958  0.34829269    -0.34500
O743        O  0.42135550  0.73598749  0.46885167    -0.35900
O744        O  0.37814542  0.74006822  0.49036536    -0.40100
C745        C  0.63778142  0.61176437  0.39503556    -0.13800
C746        C  0.62926641  0.64135056  0.39057881     0.16500
C747        C  0.59997031  0.65021583  0.39694026     0.02800
C748        C  0.58034746  0.63001229  0.40988235    -0.12300
C749        C  0.58925002  0.60072352  0.41639403    -0.03400
C750        C  0.61806164  0.59132374  0.40771720     0.02100
C751        C  0.65206030  0.66362159  0.38327349     0.08900
N752        N  0.59004910  0.67983919  0.39079445     0.65300
H753        H  0.55813277  0.63762804  0.41542949     0.18200
N754        N  0.62824183  0.56163198  0.41278572     0.75700
H755        H  0.66036017  0.60487307  0.39003030     0.09700
C756        C  0.66189268  0.68360738  0.40522392     0.03400
C757        C  0.68144140  0.70630594  0.39753829    -0.05300
C758        C  0.69196923  0.70933753  0.36831793    -0.23700
C759        C  0.68347946  0.68822558  0.34667431     0.12600
C760        C  0.66335165  0.66564325  0.35429939    -0.12900
N761        N  0.65219379  0.68105871  0.43543355     0.64300
H762        H  0.68828038  0.72194434  0.41461969     0.12200
N763        N  0.69349269  0.69046424  0.31661784     0.61000
H764        H  0.65596124  0.65006536  0.33741021     0.08300
O765        O  0.64090577  0.55530376  0.43696234    -0.40500
O766        O  0.63015427  0.54381259  0.39116966    -0.39700
O767        O  0.58553544  0.68758307  0.36423192    -0.39700
O768        O  0.58069732  0.69613914  0.41169555    -0.37400
O769        O  0.71848370  0.67982622  0.30955818    -0.38300
O770        O  0.67512280  0.69682020  0.29646145    -0.34500
O771        O  0.66193089  0.66008346  0.45131418    -0.35900
O772        O  0.63844148  0.70236288  0.44757668    -0.40100
C773        C  0.67490415  0.39171669  0.67561413    -0.13800
C774        C  0.66336795  0.36909515  0.65760338     0.16500
C775        C  0.67522162  0.34008722  0.65974973     0.02800
C776        C  0.69884241  0.33444357  0.67934178    -0.12300
C777        C  0.71082796  0.35745542  0.69669376    -0.03400
C778        C  0.69829617  0.38616169  0.69514759     0.02100
C779        C  0.64125939  0.37768858  0.63482515     0.08900
N780        N  0.66388765  0.31643965  0.64181961     0.65300
H781        H  0.70865856  0.31235790  0.68008173     0.18200
N782        N  0.70942651  0.41000806  0.71304561     0.75700
H783        H  0.66611244  0.41418042  0.67391752     0.09700
C784        C  0.61385490  0.39029922  0.64321688     0.03400
C785        C  0.59655654  0.40520985  0.62214785    -0.05300
C786        C  0.60615918  0.40821583  0.59251634    -0.23700
C787        C  0.63289876  0.39406194  0.58379123     0.12600
C788        C  0.65010223  0.37894498  0.60494042    -0.12900
N789        N  0.60401305  0.38929244  0.67343241     0.64300
H790        H  0.57602517  0.41562580  0.62944925     0.12200
N791        N  0.64323211  0.39530422  0.55376197     0.61000
H792        H  0.67135606  0.36958405  0.59829546     0.08300
O793        O  0.70774181  0.40835759  0.74100129    -0.40500
O794        O  0.71648391  0.43439709  0.70108752    -0.39700
O795        O  0.67916651  0.30648468  0.62045070    -0.39700
O796        O  0.64107847  0.30246896  0.65018877    -0.37400
O797        O  0.66334352  0.41353101  0.54674334    -0.38300
O798        O  0.63625615  0.37486812  0.53583500    -0.34500
O799        O  0.60473515  0.41255206  0.68917619    -0.35900
O800        O  0.59052426  0.36658568  0.68287237    -0.40100
C801        C  0.65764134  0.16383461  0.72455046    -0.13800
C802        C  0.66674099  0.17598133  0.69739676     0.16500
C803        C  0.68865241  0.19820245  0.69700977     0.02800
C804        C  0.70102160  0.20807328  0.72377657    -0.12300
C805        C  0.69189517  0.19611036  0.75123767    -0.03400
C806        C  0.66988882  0.17361435  0.75136277     0.02100
C807        C  0.65218288  0.16550626  0.66999066     0.08900
N808        N  0.69811127  0.21135022  0.66969432     0.65300
H809        H  0.71795919  0.22520093  0.72293966     0.18200
N810        N  0.65898119  0.16106234  0.77844427     0.75700
H811        H  0.64057993  0.14678850  0.72492739     0.09700
C812        C  0.66538155  0.14363881  0.65184385     0.03400
C813        C  0.64899491  0.13072286  0.62881193    -0.05300
C814        C  0.61943674  0.13924653  0.62351592    -0.23700
C815        C  0.60678272  0.16227000  0.64091447     0.12600
C816        C  0.62323849  0.17511315  0.66394223    -0.12900
N817        N  0.69474899  0.13311410  0.65764393     0.64300
H818        H  0.65917219  0.11322059  0.61559161     0.12200
N819        N  0.57652129  0.17110796  0.63720932     0.61000
H820        H  0.61288518  0.19177551  0.67808710     0.08300
O821        O  0.63786301  0.17359931  0.79207197    -0.40500
O822        O  0.66707230  0.13527407  0.78606916    -0.39700
O823        O  0.68488968  0.23416939  0.66010417    -0.39700
O824        O  0.72292670  0.20416813  0.65874489    -0.37400
O825        O  0.55631879  0.15739033  0.65099429    -0.38300
O826        O  0.57058413  0.19544707  0.62456107    -0.34500
O827        O  0.69861912  0.11249079  0.67625736    -0.35900
O828        O  0.71564826  0.14016415  0.64031917    -0.40100
C829        C  0.39616132  0.89624120  0.89873931    -0.13800
C830        C  0.40339690  0.87278494  0.91791825     0.16500
C831        C  0.38810108  0.84554513  0.91547124     0.02800
C832        C  0.36582646  0.84226097  0.89392948    -0.12300
C833        C  0.35795731  0.86619674  0.87552863    -0.03400
C834        C  0.37334776  0.89332914  0.87801021     0.02100
C835        C  0.42501066  0.87884152  0.94186133     0.08900
N836        N  0.39409452  0.82160621  0.93545055     0.65300
H837        H  0.35349245  0.82154553  0.89272774     0.18200
N838        N  0.36516802  0.91851628  0.86044209     0.75700
H839        H  0.40738771  0.91751592  0.90088244     0.09700
C840        C  0.45478989  0.88524108  0.93500189     0.03400
C841        C  0.47305766  0.89844437  0.95635698    -0.05300
C842        C  0.46206162  0.90595790  0.98470639    -0.23700
C843        C  0.43267610  0.89745141  0.99220476     0.12600
C844        C  0.41452158  0.88401794  0.97075915    -0.12900
N845        N  0.46622623  0.88004930  0.90579758     0.64300
H846        H  0.49553706  0.90436757  0.94998797     0.12200
N847        N  0.42042841  0.90343328  0.02095308     0.61000
H848        H  0.39148910  0.87933848  0.97617096     0.08300
O849        O  0.38026247  0.92501609  0.83770796    -0.40500
O850        O  0.34665829  0.93708709  0.87055354    -0.39700
O851        O  0.37732392  0.81751052  0.95757698    -0.39700
O852        O  0.41259217  0.80174929  0.92820579    -0.37400
O853        O  0.40382637  0.92579672  0.02467080    -0.38300
O854        O  0.42174429  0.88375302  0.04089592    -0.34500
O855        O  0.46874832  0.90146222  0.88784612    -0.35900
O856        O  0.47795506  0.85527408  0.89961205    -0.40100
C857        C  0.65853965  0.85752489  0.86094952    -0.13800
C858        C  0.65039192  0.88759399  0.86158085     0.16500
C859        C  0.65511103  0.90538256  0.83634299     0.02800
C860        C  0.66756783  0.89285147  0.81072278    -0.12300
C861        C  0.67612278  0.86272039  0.80990834    -0.03400
C862        C  0.67159793  0.84500220  0.83555955     0.02100
C863        C  0.63743517  0.90026692  0.88895304     0.08900
N864        N  0.64735628  0.93624054  0.83650089     0.65300
H865        H  0.67117332  0.90707845  0.79157368     0.18200
N866        N  0.67991316  0.81428866  0.83625231     0.75700
H867        H  0.65504546  0.84376351  0.88047451     0.09700
C868        C  0.60827160  0.89327877  0.89769206     0.03400
C869        C  0.59642155  0.90586155  0.92358929    -0.05300
C870        C  0.61305392  0.92598041  0.94069094    -0.23700
C871        C  0.64270674  0.93210037  0.93240212     0.12600
C872        C  0.65460464  0.91923549  0.90664147    -0.12900
N873        N  0.58981660  0.87510495  0.87935088     0.64300
H874        H  0.57342714  0.90132377  0.92926136     0.12200
N875        N  0.66108062  0.95098545  0.95012089     0.61000
H876        H  0.67734852  0.92416266  0.90030435     0.08300
O877        O  0.66118831  0.79466434  0.82921449    -0.40500
O878        O  0.70364947  0.80664917  0.84901696    -0.39700
O879        O  0.66706983  0.95556852  0.84131893    -0.39700
O880        O  0.62199072  0.94428957  0.82777347    -0.37400
O881        O  0.67451237  0.94030468  0.97226927    -0.38300
O882        O  0.66760426  0.97671975  0.94101290    -0.34500
O883        O  0.58211299  0.84960196  0.88815745    -0.35900
O884        O  0.57767364  0.88621578  0.85666848    -0.40100
C885        C  0.69932928  0.16986391  0.90539621    -0.13800
C886        C  0.70599817  0.13948323  0.90156910     0.16500
C887        C  0.72109582  0.13038898  0.87553761     0.02800
C888        C  0.72621235  0.15087258  0.85273854    -0.12300
C889        C  0.71775652  0.18072231  0.85581512    -0.03400
C890        C  0.70542373  0.19056562  0.88288866     0.02100
C891        C  0.69172265  0.11721472  0.92146809     0.08900
N892        N  0.73050488  0.10019872  0.87163324     0.65300
H893        H  0.73636436  0.14327191  0.83212873     0.18200
N894        N  0.69617953  0.22078375  0.88664810     0.75700
H895        H  0.68719411  0.17727079  0.92496781     0.09700
C896        C  0.69273231  0.11953578  0.95271316     0.03400
C897        C  0.67482189  0.10102421  0.97025972    -0.05300
C898        C  0.65592185  0.07970941  0.95734954    -0.23700
C899        C  0.65577322  0.07676831  0.92602778     0.12600
C900        C  0.67334934  0.09553770  0.90860323    -0.12900
N901        N  0.71190465  0.14047336  0.96694442     0.64300
H902        H  0.67578124  0.10343189  0.99426991     0.12200
N903        N  0.63669668  0.05607917  0.91131561     0.61000
H904        H  0.67144826  0.09404824  0.88456712     0.08300
O905        O  0.71086859  0.23787822  0.90331217    -0.40500
O906        O  0.67098629  0.22887135  0.87745069    -0.39700
O907        O  0.72167373  0.08544535  0.84946199    -0.39700
O908        O  0.75098881  0.08987858  0.88771230    -0.37400
O909        O  0.61054629  0.06371386  0.90477065    -0.38300
O910        O  0.64743648  0.03250992  0.90038546    -0.34500
O911        O  0.70101291  0.16072585  0.98312232    -0.35900
O912        O  0.73951853  0.13573457  0.96740124    -0.40100
C913        C  0.43503952  0.12155669  0.17693245    -0.13800
C914        C  0.43410237  0.15126159  0.16761675     0.16500
C915        C  0.45435778  0.16133503  0.14599712     0.02800
C916        C  0.47528974  0.14166623  0.13416688    -0.12300
C917        C  0.47608997  0.11166889  0.14300349    -0.03400
C918        C  0.45583560  0.10171702  0.16488759     0.02100
C919        C  0.41299315  0.17211338  0.18164275     0.08900
N920        N  0.45300214  0.19116235  0.13492646     0.65300
H921        H  0.49022919  0.14973822  0.11700903     0.18200
N922        N  0.45662258  0.07185609  0.17574419     0.75700
H923        H  0.41986166  0.11387546  0.19406955     0.09700
C924        C  0.38206213  0.16838526  0.17887891     0.03400
C925        C  0.36284494  0.19022988  0.19012999    -0.05300
C926        C  0.37426148  0.21581823  0.20374452    -0.23700
C927        C  0.40506115  0.21847193  0.20827348     0.12600
C928        C  0.42417699  0.19666826  0.19718343    -0.12900
N929        N  0.37010754  0.14401848  0.16235250     0.64300
H930        H  0.33917503  0.18840649  0.18600137     0.12200
N931        N  0.41713858  0.24369202  0.22343037     0.61000
H932        H  0.44797070  0.19924620  0.20006926     0.08300
O933        O  0.43516566  0.05458525  0.17063203    -0.40500
O934        O  0.47639961  0.06425663  0.19406235    -0.39700
O935        O  0.47481774  0.20841817  0.13829866    -0.39700
O936        O  0.43145617  0.19914140  0.11890260    -0.37400
O937        O  0.41412121  0.24600357  0.25123340    -0.38300
O938        O  0.43352503  0.26183037  0.20968142    -0.34500
O939        O  0.35581661  0.12381434  0.17554310    -0.35900
O940        O  0.37139711  0.14414085  0.13432513    -0.40100
C941        C  0.95986742  0.41835780  0.88579671    -0.13800
C942        C  0.93196909  0.43064434  0.88010161     0.16500
C943        C  0.92748122  0.46127214  0.88472407     0.02800
C944        C  0.95015281  0.47851355  0.89745719    -0.12300
C945        C  0.97734391  0.46552888  0.90613556    -0.03400
C946        C  0.98238037  0.43525888  0.89878573     0.02100
C947        C  0.90701184  0.40968971  0.87628184     0.08900
N948        N  0.89943081  0.47468908  0.87846989     0.65300
H949        H  0.94565505  0.50177769  0.90219011     0.18200
N950        N  0.00942656  0.42049854  0.90597043     0.75700
H951        H  0.96348469  0.39470010  0.88225789     0.09700
C952        C  0.89576862  0.40162499  0.84824002     0.03400
C953        C  0.87627095  0.37732954  0.84583225    -0.05300
C954        C  0.86839821  0.36054277  0.87103662    -0.23700
C955        C  0.87869640  0.36973173  0.89922399     0.12600
C956        C  0.89764428  0.39414404  0.90155064    -0.12900
N957        N  0.90545001  0.41657076  0.82195915     0.64300
H958        H  0.86873326  0.37049505  0.82397016     0.12200
N959        N  0.87068682  0.35409715  0.92570845     0.61000
H960        H  0.90628043  0.40021777  0.92324504     0.08300
O961        O  0.02703923  0.41376877  0.88515814    -0.40500
O962        O  0.01105964  0.40663848  0.93029939    -0.39700
O963        O  0.88033070  0.47719750  0.89888105    -0.39700
O964        O  0.89583238  0.48855996  0.85437331    -0.37400
O965        O  0.88963187  0.33782073  0.93845208    -0.38300
O966        O  0.84707890  0.36098647  0.93922645    -0.34500
O967        O  0.92633571  0.40565053  0.80668742    -0.35900
O968        O  0.88978043  0.43720206  0.81121436    -0.40100
C969        C  0.91414419  0.67908089  0.10162313    -0.13800
C970        C  0.92539072  0.68308770  0.13035167     0.16500
C971        C  0.95509165  0.67552376  0.13612036     0.02800
C972        C  0.97251039  0.66248935  0.11376998    -0.12300
C973        C  0.96080124  0.65634312  0.08536653    -0.03400
C974        C  0.93135649  0.66573125  0.07918422     0.02100
C975        C  0.90445946  0.69008128  0.15487802     0.08900
N976        N  0.96756050  0.68016798  0.16491870     0.65300
H977        H  0.99507983  0.65606162  0.11923213     0.18200
N978        N  0.91811367  0.66127484  0.05068407     0.75700
H979        H  0.89116119  0.68475388  0.09703310     0.09700
C980        C  0.89090101  0.71823577  0.15782922     0.03400
C981        C  0.86790195  0.72235846  0.17858261    -0.05300
C982        C  0.85786704  0.69856407  0.19608936    -0.23700
C983        C  0.87210275  0.67072072  0.19378870     0.12600
C984        C  0.89537259  0.66677177  0.17348874    -0.12900
N985        N  0.89972028  0.74250610  0.13935161     0.64300
H986        H  0.85692622  0.74385057  0.18005857     0.12200
N987        N  0.86263553  0.64606698  0.21144658     0.61000
H988        H  0.90550548  0.64492584  0.17123794     0.08300
O989        O  0.91119145  0.68369080  0.03529361    -0.40500
O990        O  0.90643827  0.63645320  0.04474526    -0.39700
O991        O  0.97094136  0.65840936  0.18229763    -0.39700
O992        O  0.97924811  0.70490534  0.17113999    -0.37400
O993        O  0.84423086  0.62771996  0.20096158    -0.38300
O994        O  0.87642957  0.63979448  0.23500326    -0.34500
O995        O  0.88323194  0.75062228  0.11821680    -0.35900
O996        O  0.92121405  0.75872145  0.14707464    -0.40100
C997        C  0.20581709  0.40010146  0.16949284    -0.13800
C998        C  0.18286021  0.42085950  0.17369000     0.16500
C999        C  0.16837846  0.42244422  0.20142218     0.02800
C1000       C  0.17778391  0.40424580  0.22464210    -0.12300
C1001       C  0.20096545  0.38350290  0.22088342    -0.03400
C1002       C  0.21489578  0.38135078  0.19275539     0.02100
C1003       C  0.17353547  0.44047327  0.14901136     0.08900
N1004       N  0.14313367  0.44139930  0.20595343     0.65300
H1005       H  0.16602087  0.40587983  0.24565644     0.18200
N1006       N  0.23851239  0.36074197  0.18751259     0.75700
H1007       H  0.21685040  0.39858443  0.14807667     0.09700
C1008       C  0.17482102  0.47173376  0.15176854     0.03400
C1009       C  0.16042758  0.48963924  0.13086182    -0.05300
C1010       C  0.14555499  0.47703913  0.10653706    -0.23700
C1011       C  0.14593165  0.44579938  0.10282831     0.12600
C1012       C  0.15976265  0.42782579  0.12413414    -0.12900
N1013       N  0.19082497  0.48551784  0.17555611     0.64300
H1014       H  0.16101628  0.51364797  0.13358371     0.12200
N1015       N  0.13046810  0.43186725  0.07887328     0.61000
H1016       H  0.15846816  0.40379169  0.12201218     0.08300
O1017       O  0.26508198  0.36918558  0.19010959    -0.40500
O1018       O  0.23300013  0.33590562  0.17562653    -0.39700
O1019       O  0.11986049  0.43720720  0.19095986    -0.39700
O1020       O  0.14226391  0.45866840  0.22810201    -0.37400
O1021       O  0.14478774  0.42237580  0.05664978    -0.38300
O1022       O  0.10354385  0.42480871  0.08205305    -0.34500
O1023       O  0.21837168  0.48100971  0.17802197    -0.35900
O1024       O  0.17868723  0.50570562  0.19091820    -0.40100
C1025       C  0.86850987  0.67281477  0.85645017    -0.13800
C1026       C  0.87073229  0.66556706  0.88663435     0.16500
C1027       C  0.84741316  0.67315134  0.90611038     0.02800
C1028       C  0.82230685  0.68760534  0.89522017    -0.12300
C1029       C  0.81964941  0.69475741  0.86493644    -0.03400
C1030       C  0.84330188  0.68733174  0.84541193     0.02100
C1031       C  0.89772111  0.65083632  0.89801418     0.08900
N1032       N  0.84863774  0.66564014  0.93696665     0.65300
H1033       H  0.80466014  0.69310167  0.91078796     0.18200
N1034       N  0.84204786  0.69388209  0.81435265     0.75700
H1035       H  0.88660361  0.66736155  0.84136884     0.09700
C1036       C  0.90640469  0.62239712  0.88800806     0.03400
C1037       C  0.92993137  0.60767978  0.90195173    -0.05300
C1038       C  0.94500153  0.62094396  0.92583567    -0.23700
C1039       C  0.93789480  0.65046593  0.93400359     0.12600
C1040       C  0.91426180  0.66502686  0.92021337    -0.12900
N1041       N  0.89031403  0.60742733  0.86511241     0.64300
H1042       H  0.93522333  0.58506751  0.89517889     0.12200
N1043       N  0.95457206  0.66597413  0.95611818     0.61000
H1044       H  0.90844945  0.68745517  0.92719956     0.08300
O1045       O  0.83461638  0.67376630  0.79624820    -0.40500
O1046       O  0.85363309  0.71754760  0.80470293    -0.39700
O1047       O  0.85135859  0.68594666  0.95617633    -0.39700
O1048       O  0.84266859  0.63946843  0.94516398    -0.37400
O1049       O  0.97934446  0.67723021  0.94942319    -0.38300
O1050       O  0.94287739  0.67189476  0.98093445    -0.34500
O1051       O  0.90176455  0.60449376  0.83964624    -0.35900
O1052       O  0.86698198  0.59329589  0.87152658    -0.40100
C1053       C  0.63428904  0.16854934  0.14811411    -0.13800
C1054       C  0.66198548  0.17807493  0.13752035     0.16500
C1055       C  0.67516901  0.16277328  0.11348084     0.02800
C1056       C  0.65991692  0.13945425  0.09960235    -0.12300
C1057       C  0.63138142  0.13096636  0.10907064    -0.03400
C1058       C  0.61888132  0.14541528  0.13419960     0.02100
C1059       C  0.67636754  0.20436772  0.15146231     0.08900
N1060       N  0.70342007  0.17155418  0.10197632     0.65300
H1061       H  0.67014991  0.12869194  0.08052451     0.18200
N1062       N  0.59059916  0.13699364  0.14597456     0.75700
H1063       H  0.62435614  0.17938158  0.16732612     0.09700
C1064       C  0.66104591  0.23163834  0.15407943     0.03400
C1065       C  0.67474555  0.25600450  0.16755822    -0.05300
C1066       C  0.70382414  0.25414691  0.17871915    -0.23700
C1067       C  0.71909216  0.22663631  0.17642617     0.12600
C1068       C  0.70524659  0.20213144  0.16293608    -0.12900
N1069       N  0.63165458  0.23514387  0.14263394     0.64300
H1070       H  0.66226703  0.27663748  0.16924960     0.12200
N1071       N  0.74873688  0.22321283  0.18716321     0.61000
H1072       H  0.71710829  0.18109754  0.16161756     0.08300
O1073       O  0.56825240  0.15339176  0.14163365    -0.40500
O1074       O  0.58886386  0.11571990  0.16418446    -0.39700
O1075       O  0.72552939  0.15453837  0.10496125    -0.39700
O1076       O  0.70521712  0.19377384  0.08494333    -0.37400
O1077       O  0.75307763  0.21183980  0.21242166    -0.38300
O1078       O  0.77030105  0.22628752  0.16948311    -0.34500
O1079       O  0.61022609  0.23943757  0.16026464    -0.35900
O1080       O  0.62778017  0.23823547  0.11504232    -0.40100
C1081       C  0.41735120  0.42513254  0.67011303    -0.13800
C1082       C  0.43098597  0.39906811  0.68028085     0.16500
C1083       C  0.45808984  0.38974964  0.66796416     0.02800
C1084       C  0.47140894  0.40679457  0.64577764    -0.12300
C1085       C  0.45801589  0.43314142  0.63545707    -0.03400
C1086       C  0.43056646  0.44225572  0.64783419     0.02100
C1087       C  0.41728519  0.38285894  0.70498892     0.08900
N1088       N  0.47214606  0.36291014  0.67762713     0.65300
H1089       H  0.49252596  0.39935864  0.63675064     0.18200
N1090       N  0.41563507  0.46850077  0.63787057     0.75700
H1091       H  0.39643997  0.43236698  0.67979578     0.09700
C1092       C  0.42776494  0.38663138  0.73413394     0.03400
C1093       C  0.41237074  0.37372068  0.75767790    -0.05300
C1094       C  0.38628714  0.35741013  0.75270063    -0.23700
C1095       C  0.37651502  0.35259808  0.72329786     0.12600
C1096       C  0.39219136  0.36532368  0.69965062    -0.12900
N1097       N  0.45276268  0.40519782  0.74029899     0.64300
H1098       H  0.42023541  0.37752276  0.78015874     0.12200
N1099       N  0.34946834  0.33717460  0.71725667     0.61000
H1100       H  0.38402681  0.36262520  0.67712474     0.08300
O1101       O  0.41757339  0.49223463  0.65278032    -0.40500
O1102       O  0.39673755  0.46664801  0.61729682    -0.39700
O1103       O  0.46249458  0.33812495  0.66866926    -0.39700
O1104       O  0.49681648  0.36411058  0.69079928    -0.37400
O1105       O  0.32500524  0.35069197  0.71976227    -0.38300
O1106       O  0.35026784  0.31194652  0.70490811    -0.34500
O1107       O  0.44909618  0.43294411  0.74282827    -0.35900
O1108       O  0.47671282  0.39358491  0.74905560    -0.40100
C1109       C  0.69925818  0.67824331  0.19838213    -0.13800
C1110       C  0.70134681  0.65096593  0.18348507     0.16500
C1111       C  0.72894771  0.63625105  0.18166320     0.02800
C1112       C  0.75404544  0.64916834  0.19454418    -0.12300
C1113       C  0.75220157  0.67681359  0.20897449    -0.03400
C1114       C  0.72435579  0.69131344  0.21106995     0.02100
C1115       C  0.67487065  0.63895750  0.16850806     0.08900
N1116       N  0.73215091  0.60911989  0.16528664     0.65300
H1117       H  0.77528014  0.63787532  0.19253343     0.18200
N1118       N  0.72156064  0.72028472  0.22397108     0.75700
H1119       H  0.67810265  0.68980520  0.19952095     0.09700
C1120       C  0.66155120  0.61225289  0.17786429     0.03400
C1121       C  0.63840316  0.60006597  0.16120373    -0.05300
C1122       C  0.62759856  0.61449278  0.13567002    -0.23700
C1123       C  0.63998901  0.64220141  0.12740944     0.12600
C1124       C  0.66366775  0.65394747  0.14366658    -0.12900
N1125       N  0.67085274  0.59770238  0.20456638     0.64300
H1126       H  0.62896448  0.57902215  0.16829386     0.12200
N1127       N  0.62849554  0.65896459  0.10300812     0.61000
H1128       H  0.67357467  0.67483342  0.13671534     0.08300
O1129       O  0.71314160  0.72298323  0.25060319    -0.40500
O1130       O  0.72298539  0.74301272  0.20758146    -0.39700
O1131       O  0.73131822  0.60967444  0.13725351    -0.39700
O1132       O  0.74095689  0.58587881  0.17831857    -0.37400
O1133       O  0.60567144  0.67488826  0.10669466    -0.38300
O1134       O  0.64361918  0.66161448  0.07951245    -0.34500
O1135       O  0.66753922  0.61067933  0.22925919    -0.35900
O1136       O  0.67769842  0.57044829  0.20404688    -0.40100
C1137       C  0.69459839  0.71522220  0.93239888    -0.13800
C1138       C  0.67035576  0.69938024  0.92094449     0.16500
C1139       C  0.66768822  0.69588289  0.88986889     0.02800
C1140       C  0.69008966  0.70663836  0.87106595    -0.12300
C1141       C  0.71554126  0.72005041  0.88287920    -0.03400
C1142       C  0.71725451  0.72529877  0.91369918     0.02100
C1143       C  0.64910110  0.68527925  0.94186094     0.08900
N1144       N  0.64391835  0.67898987  0.87734713     0.65300
H1145       H  0.68881445  0.70210666  0.84738235     0.18200
N1146       N  0.74220708  0.74032965  0.92629217     0.75700
H1147       H  0.69640659  0.71894690  0.95618481     0.09700
C1148       C  0.65926303  0.66575272  0.96413089     0.03400
C1149       C  0.63904634  0.65262566  0.98366091    -0.05300
C1150       C  0.60835823  0.65788178  0.98124305    -0.23700
C1151       C  0.59824707  0.67804240  0.95932888     0.12600
C1152       C  0.61863420  0.69149718  0.93991178    -0.12900
N1153       N  0.68992843  0.65766261  0.96609323     0.64300
H1154       H  0.64750725  0.63702091  0.99999420     0.12200
N1155       N  0.56753980  0.68557721  0.95683149     0.61000
H1156       H  0.61063561  0.70707333  0.92330424     0.08300
O1157       O  0.75955523  0.72656313  0.94346385    -0.40500
O1158       O  0.74451042  0.76818753  0.92357636    -0.39700
O1159       O  0.62586682  0.69127502  0.85979508    -0.39700
O1160       O  0.64327654  0.65110860  0.88071399    -0.37400
O1161       O  0.55627567  0.70415841  0.97466611    -0.38300
O1162       O  0.55321378  0.67775174  0.93406280    -0.34500
O1163       O  0.70466023  0.66442931  0.98894302    -0.35900
O1164       O  0.70118189  0.64057001  0.94682326    -0.40100
C1165       C  0.38365589  0.41948220  0.12679556    -0.13800
C1166       C  0.39906303  0.39779788  0.14295861     0.16500
C1167       C  0.43017456  0.39984448  0.14549910     0.02800
C1168       C  0.44541178  0.42254727  0.13087107    -0.12300
C1169       C  0.43026195  0.44374790  0.11366528    -0.03400
C1170       C  0.39886230  0.44257975  0.11245820     0.02100
C1171       C  0.38314383  0.37124064  0.15402625     0.08900
N1172       N  0.44666286  0.37861533  0.16245709     0.65300
H1173       H  0.46945896  0.42301119  0.13246102     0.18200
N1174       N  0.38204424  0.46461339  0.09693871     0.75700
H1175       H  0.35969537  0.41803389  0.12460788     0.09700
C1176       C  0.35952228  0.37313328  0.17452680     0.03400
C1177       C  0.34644875  0.34701508  0.18542764    -0.05300
C1178       C  0.35654086  0.31883367  0.17612787    -0.23700
C1179       C  0.37881363  0.31728864  0.15383891     0.12600
C1180       C  0.39181703  0.34333912  0.14323423    -0.12900
N1181       N  0.34967752  0.40127573  0.18564799     0.64300
H1182       H  0.32927920  0.34888217  0.20231135     0.12200
N1183       N  0.38857201  0.28953554  0.14157969     0.61000
H1184       H  0.40904535  0.34174671  0.12634846     0.08300
O1185       O  0.37735727  0.48955180  0.10902933    -0.40500
O1186       O  0.36729703  0.45729883  0.07427757    -0.39700
O1187       O  0.46380433  0.36056809  0.14939715    -0.39700
O1188       O  0.44796699  0.38127118  0.19034688    -0.37400
O1189       O  0.37329592  0.27703715  0.12169154    -0.38300
O1190       O  0.41467314  0.28055494  0.14645351    -0.34500
O1191       O  0.32542170  0.41205790  0.17667433    -0.35900
O1192       O  0.36232447  0.41259734  0.20794568    -0.40100
C1193       C  0.68117275  0.40024018  0.16640396    -0.13800
C1194       C  0.65748522  0.40697149  0.18568716     0.16500
C1195       C  0.65480872  0.39100564  0.21261810     0.02800
C1196       C  0.67471240  0.36790111  0.21898883    -0.12300
C1197       C  0.69757448  0.36064076  0.19915178    -0.03400
C1198       C  0.70127373  0.37742519  0.17306044     0.02100
C1199       C  0.63392624  0.42784265  0.17552264     0.08900
N1200       N  0.63160320  0.39756220  0.23335560     0.65300
H1201       H  0.67162272  0.35479809  0.23906047     0.18200
N1202       N  0.72479870  0.37082778  0.15271555     0.75700
H1203       H  0.68332580  0.41184184  0.14532209     0.09700
C1204       C  0.64072749  0.45655494  0.16487640     0.03400
C1205       C  0.61845033  0.47409763  0.15210390    -0.05300
C1206       C  0.58912520  0.46368423  0.14947117    -0.23700
C1207       C  0.58219104  0.43520181  0.16083713     0.12600
C1208       C  0.60454858  0.41760775  0.17348378    -0.12900
N1209       N  0.67024003  0.46809959  0.16654789     0.64300
H1210       H  0.62446060  0.49585923  0.14347916     0.12200
N1211       N  0.55263578  0.42374131  0.15971547     0.61000
H1212       H  0.59901176  0.39530370  0.18099008     0.08300
O1213       O  0.74990490  0.38270737  0.15629162    -0.40500
O1214       O  0.71942626  0.35665104  0.12910851    -0.39700
O1215       O  0.61201182  0.37826038  0.23882229    -0.39700
O1216       O  0.63367789  0.42019682  0.24985118    -0.37400
O1217       O  0.53460631  0.42985031  0.18035969    -0.38300
O1218       O  0.54617486  0.40379131  0.14105639    -0.34500
O1219       O  0.68473471  0.47273086  0.14295924    -0.35900
O1220       O  0.67960396  0.47855452  0.19081426    -0.40100
C1221       C  0.42250942  0.68099888  0.83886511    -0.13800
C1222       C  0.40995733  0.68533483  0.86700715     0.16500
C1223       C  0.38518523  0.70417152  0.87030519     0.02800
C1224       C  0.37226081  0.71699304  0.84512188    -0.12300
C1225       C  0.38371334  0.71113972  0.81661559    -0.03400
C1226       C  0.40978296  0.69385073  0.81373213     0.02100
C1227       C  0.42304853  0.66956342  0.89245034     0.08900
N1228       N  0.37197368  0.70903704  0.89881461     0.65300
H1229       H  0.35226348  0.73027268  0.84778134     0.18200
N1230       N  0.42389190  0.68959622  0.78553518     0.75700
H1231       H  0.44229747  0.66734940  0.83640956     0.09700
C1232       C  0.42152914  0.63837712  0.89425427     0.03400
C1233       C  0.43621896  0.62350863  0.91709774    -0.05300
C1234       C  0.45313488  0.63916101  0.93817709    -0.23700
C1235       C  0.45424815  0.67066403  0.93648030     0.12600
C1236       C  0.43910737  0.68550107  0.91372305    -0.12900
N1237       N  0.40570749  0.62148315  0.87252073     0.64300
H1238       H  0.43511055  0.59937796  0.91763421     0.12200
N1239       N  0.47084585  0.68795753  0.95729992     0.61000
H1240       H  0.44047246  0.70959261  0.91221394     0.08300
O1241       O  0.42442448  0.66405829  0.77381861    -0.40500
O1242       O  0.43974585  0.71008324  0.77478414    -0.39700
O1243       O  0.37486025  0.73393161  0.91150026    -0.39700
O1244       O  0.35381480  0.69029773  0.90907798    -0.37400
O1245       O  0.49307784  0.70255449  0.94845451    -0.38300
O1246       O  0.46001771  0.69333127  0.98264246    -0.34500
O1247       O  0.41961035  0.60975586  0.85110345    -0.35900
O1248       O  0.37905125  0.61432906  0.87730048    -0.40100
C1249       C  0.38217357  0.44013943  0.94905396    -0.13800
C1250       C  0.39114247  0.43810722  0.91921448     0.16500
C1251       C  0.41386424  0.45722569  0.90893015     0.02800
C1252       C  0.42606256  0.47856247  0.92794722    -0.12300
C1253       C  0.41736844  0.48054856  0.95785954    -0.03400
C1254       C  0.39540027  0.46070072  0.96848834     0.02100
C1255       C  0.37561189  0.41769113  0.89820465     0.08900
N1256       N  0.42578139  0.45431675  0.87953319     0.65300
H1257       H  0.44362646  0.49277764  0.91947799     0.18200
N1258       N  0.38598595  0.46131726  0.99881289     0.75700
H1259       H  0.36447528  0.42596742  0.95729530     0.09700
C1260       C  0.37189814  0.38691380  0.90374905     0.03400
C1261       C  0.36081693  0.36821662  0.88124611    -0.05300
C1262       C  0.35397866  0.37966688  0.85307111    -0.23700
C1263       C  0.35523219  0.41075703  0.84858099     0.12600
C1264       C  0.36544117  0.42935241  0.87119018    -0.12900
N1265       N  0.38158242  0.37391415  0.93102852     0.64300
H1266       H  0.36016932  0.34434476  0.88496905     0.12200
N1267       N  0.34777230  0.42366215  0.82052091     0.61000
H1268       H  0.36674515  0.45313144  0.86703092     0.08300
O1269       O  0.39492212  0.44140973  0.01643283    -0.40500
O1270       O  0.36515237  0.47845347  0.00662295    -0.39700
O1271       O  0.42546092  0.47627866  0.86206555    -0.39700
O1272       O  0.44008925  0.43117564  0.87246217    -0.37400
O1273       O  0.32107908  0.43003334  0.81493071    -0.38300
O1274       O  0.36809749  0.43355799  0.80390144    -0.34500
O1275       O  0.36276230  0.36293826  0.94869505    -0.35900
O1276       O  0.40887070  0.36915719  0.93519456    -0.40100
C1277       C  0.41299535  0.13303651  0.38434758    -0.13800
C1278       C  0.38966670  0.14606968  0.40045433     0.16500
C1279       C  0.39092765  0.14652650  0.43172947     0.02800
C1280       C  0.41512295  0.13380606  0.44636264    -0.12300
C1281       C  0.43822147  0.12001393  0.43042541    -0.03400
C1282       C  0.43711633  0.11992474  0.39898454     0.02100
C1283       C  0.36320973  0.15730954  0.38454414     0.08900
N1284       N  0.36757466  0.15957123  0.44894865     0.65300
H1285       H  0.41530314  0.13397266  0.47050198     0.18200
N1286       N  0.46017122  0.10659226  0.38158596     0.75700
H1287       H  0.41208175  0.13232445  0.36023046     0.09700
C1288       C  0.36521679  0.18051590  0.36363363     0.03400
C1289       C  0.33951691  0.19095793  0.34959544    -0.05300
C1290       C  0.31153449  0.17874367  0.35619824    -0.23700
C1291       C  0.30991467  0.15436020  0.37603400     0.12600
C1292       C  0.33562087  0.14404640  0.39002773    -0.12900
N1293       N  0.39294411  0.19476365  0.35769466     0.64300
H1294       H  0.34138181  0.20976273  0.33457750     0.12200
N1295       N  0.28247198  0.13947346  0.38185655     0.61000
H1296       H  0.33406163  0.12535093  0.40524169     0.08300
O1297       O  0.48121848  0.12247231  0.37206992    -0.40500
O1298       O  0.45670866  0.08066570  0.37133858    -0.39700
O1299       O  0.35011010  0.14305602  0.46340269    -0.39700
O1300       O  0.36749198  0.18726719  0.45363724    -0.37400
O1301       O  0.27193939  0.12186423  0.36273067    -0.41500
O1302       O  0.27110551  0.14055325  0.40750717    -0.34500
O1303       O  0.40519798  0.19163228  0.33262918    -0.35900
O1304       O  0.40308705  0.21354240  0.37590050    -0.40100
C1305       C  0.88982441  0.95715201  0.42044632    -0.13800
C1306       C  0.89409951  0.92717991  0.42805752     0.16500
C1307       C  0.91112773  0.92019168  0.45335192     0.02800
C1308       C  0.92384599  0.94303445  0.47020164    -0.12300
C1309       C  0.92041642  0.97304545  0.46209087    -0.03400
C1310       C  0.90283949  0.98002571  0.43713248     0.02100
C1311       C  0.88466780  0.90376818  0.40685147     0.08900
N1312       N  0.91634734  0.88994663  0.46171187     0.65300
H1313       H  0.93735406  0.93713653  0.48928610     0.18200
N1314       N  0.89759923  0.01016907  0.42867437     0.75700
H1315       H  0.87719369  0.96283281  0.40070493     0.09700
C1316       C  0.85479193  0.90030115  0.39806436     0.03400
C1317       C  0.84769333  0.88075620  0.37476338    -0.05300
C1318       C  0.87008589  0.86495075  0.35982826    -0.23700
C1319       C  0.89972558  0.86767437  0.36933582     0.12600
C1320       C  0.90675041  0.88694279  0.39262819    -0.12900
N1321       N  0.83165620  0.91710247  0.41200178     0.64300
H1322       H  0.82482250  0.87904539  0.36735842     0.12200
N1323       N  0.92303749  0.85144159  0.35500659     0.61000
H1324       H  0.92987811  0.88972968  0.39881118     0.08300
O1325       O  0.91052678  0.02053483  0.40603490    -0.40500
O1326       O  0.87547788  0.02374777  0.43938275    -0.39700
O1327       O  0.94186118  0.87876462  0.45836138    -0.39700
O1328       O  0.89721026  0.87631188  0.47700719    -0.37400
O1329       O  0.94095634  0.86483627  0.33809483    -0.38300
O1330       O  0.92858472  0.82510411  0.36299617    -0.34500
O1331       O  0.81956261  0.93829847  0.39816063    -0.35900
O1332       O  0.81997428  0.90761981  0.43567588    -0.40100
C1333       C  0.09935773  0.92378905  0.68814745    -0.13800
C1334       C  0.12943543  0.93156509  0.68679328     0.16500
C1335       C  0.13779398  0.95871735  0.67380844     0.02800
C1336       C  0.11616226  0.97699615  0.66102070    -0.12300
C1337       C  0.08616653  0.96827273  0.66033706    -0.03400
C1338       C  0.07768030  0.94186829  0.67507934     0.02100
C1339       C  0.15173614  0.90885021  0.69447444     0.08900
N1340       N  0.16833320  0.96705875  0.67181908     0.65300
H1341       H  0.12323348  0.99721159  0.64987845     0.18200
N1342       N  0.04728666  0.93292236  0.67664349     0.75700
H1343       H  0.09283224  0.90284726  0.69824716     0.09700
C1344       C  0.16084717  0.90382813  0.72395454     0.03400
C1345       C  0.17875702  0.87907768  0.73051322    -0.05300
C1346       C  0.18737725  0.85921548  0.70791268    -0.23700
C1347       C  0.17902619  0.86506127  0.67830666     0.12600
C1348       C  0.16139192  0.88975678  0.67184959    -0.12900
N1349       N  0.15119483  0.92306035  0.74739871     0.64300
H1350       H  0.18494958  0.87472131  0.75336537     0.12200
N1351       N  0.18823943  0.84599786  0.65454581     0.61000
H1352       H  0.15439994  0.89356779  0.64911589     0.08300
O1353       O  0.03839931  0.91122331  0.66122371    -0.40500
O1354       O  0.03084860  0.94319904  0.69697359    -0.39700
O1355       O  0.18367483  0.95861467  0.64985690    -0.39700
O1356       O  0.17846553  0.98666567  0.68913230    -0.37400
O1357       O  0.16991392  0.82810297  0.64318507    -0.38300
O1358       O  0.21255082  0.85092696  0.64147856    -0.34500
O1359       O  0.13019987  0.91522031  0.76425845    -0.35900
O1360       O  0.16249690  0.94858849  0.75022942    -0.40100
C1361       C  0.15465450  0.12807720  0.68339959    -0.13800
C1362       C  0.17434924  0.14646472  0.66787891     0.16500
C1363       C  0.16965496  0.15198108  0.63752922     0.02800
C1364       C  0.14626533  0.13793568  0.62271181    -0.12300
C1365       C  0.12700253  0.11833873  0.63774204    -0.03400
C1366       C  0.13104715  0.11406723  0.66873028     0.02100
C1367       C  0.20174272  0.15686655  0.68252813     0.08900
N1368       N  0.18908801  0.17123073  0.62135669     0.65300
H1369       H  0.14369997  0.14194334  0.59910776     0.18200
N1370       N  0.11208408  0.09491099  0.68553423     0.75700
H1371       H  0.15827260  0.12372622  0.70681711     0.09700
C1372       C  0.20173918  0.18154001  0.70170489     0.03400
C1373       C  0.22841527  0.19115499  0.71439770    -0.05300
C1374       C  0.25549542  0.17662733  0.70812162    -0.23700
C1375       C  0.25515430  0.15144961  0.68921486     0.12600
C1376       C  0.22841132  0.14191154  0.67661166    -0.12900
N1377       N  0.17503463  0.19779207  0.70739812     0.64300
H1378       H  0.22796235  0.21076717  0.72850458     0.12200
N1379       N  0.28151183  0.13479827  0.68315772     0.61000
H1380       H  0.22843429  0.12262021  0.66203334     0.08300
O1381       O  0.09016495  0.10573868  0.69934747    -0.40500
O1382       O  0.11994773  0.06840852  0.69052528    -0.39700
O1383       O  0.20726329  0.16049012  0.60283095    -0.39700
O1384       O  0.18910765  0.19883332  0.62661651    -0.37400
O1385       O  0.28880094  0.11392815  0.70042163    -0.38300
O1386       O  0.29345254  0.13649684  0.65781128    -0.34500
O1387       O  0.16053145  0.19302401  0.73093624    -0.35900
O1388       O  0.16839735  0.21974946  0.69124547    -0.40100
C1389       C  0.15617486  0.17125329  0.46181988    -0.13800
C1390       C  0.14284591  0.18427374  0.43685977     0.16500
C1391       C  0.11185273  0.18232918  0.43350748     0.02800
C1392       C  0.09492798  0.16682983  0.45454935    -0.12300
C1393       C  0.10829264  0.15292091  0.47920305    -0.03400
C1394       C  0.13938163  0.15571381  0.48288496     0.02100
C1395       C  0.16229841  0.19578370  0.41283060     0.08900
N1396       N  0.09730713  0.19582156  0.40872796     0.65300
H1397       H  0.07110778  0.16539683  0.45122169     0.18200
N1398       N  0.15460976  0.14161299  0.50690110     0.75700
H1399       H  0.18015737  0.17184005  0.46424347     0.09700
C1400       C  0.18454472  0.21702481  0.41882041     0.03400
C1401       C  0.20718963  0.22192970  0.39804922    -0.05300
C1402       C  0.20776856  0.20629531  0.37111941    -0.23700
C1403       C  0.18462865  0.18651840  0.36422479     0.12600
C1404       C  0.16205197  0.18142582  0.38505529    -0.12900
N1405       N  0.18487452  0.23301110  0.44631130     0.64300
H1406       H  0.22499422  0.23730065  0.40339051     0.12200
N1407       N  0.18516094  0.16967471  0.33726160     0.61000
H1408       H  0.14547735  0.16454104  0.38035771     0.08300
O1409       O  0.16406620  0.11532248  0.50383338    -0.40500
O1410       O  0.16293021  0.15690263  0.52889818    -0.39700
O1411       O  0.08485104  0.17969827  0.38946127    -0.39700
O1412       O  0.09286914  0.22356331  0.40863294    -0.37400
O1413       O  0.19992935  0.14581315  0.33589580    -0.38300
O1414       O  0.16794712  0.17652465  0.31626487    -0.34500
O1415       O  0.20561648  0.22874648  0.46463208    -0.35900
O1416       O  0.16721792  0.25451642  0.45016010    -0.40100
C1417       C  0.89665769  0.84250306  0.64894805    -0.13800
C1418       C  0.88414461  0.87001382  0.65637197     0.16500
C1419       C  0.85880874  0.87118826  0.67455660     0.02800
C1420       C  0.84735732  0.84485558  0.68653957    -0.12300
C1421       C  0.86063992  0.81711029  0.68027639    -0.03400
C1422       C  0.88484788  0.81603155  0.66009999     0.02100
C1423       C  0.89792719  0.89700546  0.64416793     0.08900
N1424       N  0.84507992  0.89899788  0.68169026     0.65300
H1425       H  0.82856133  0.84635938  0.70160796     0.18200
N1426       N  0.89708956  0.78838665  0.64988547     0.75700
H1427       H  0.91554892  0.84161341  0.63391215     0.09700
C1428       C  0.92451697  0.90791570  0.65619584     0.03400
C1429       C  0.94025062  0.93012085  0.64128293    -0.05300
C1430       C  0.93003034  0.94160919  0.61409982    -0.23700
C1431       C  0.90264733  0.93111430  0.60257421     0.12600
C1432       C  0.88685901  0.90908775  0.61781860    -0.12900
N1433       N  0.93631344  0.89575633  0.68301757     0.64300
H1434       H  0.96099876  0.93782990  0.65076358     0.12200
N1435       N  0.89146982  0.94100402  0.57454591     0.61000
H1436       H  0.86659487  0.90025222  0.60822724     0.08300
O1437       O  0.88102131  0.77057784  0.63536086    -0.40500
O1438       O  0.92476985  0.78409468  0.65086075    -0.39700
O1439       O  0.82100868  0.90620747  0.66932541    -0.39700
O1440       O  0.85454264  0.91413326  0.70331902    -0.37400
O1441       O  0.89847419  0.92713884  0.55112847    -0.38300
O1442       O  0.87097325  0.96016511  0.57376697    -0.34500
O1443       O  0.95641299  0.87619222  0.68180244    -0.35900
O1444       O  0.92939745  0.90720080  0.70771167    -0.40100
C1445       C  0.14013067  0.67847384  0.22668377    -0.13800
C1446       C  0.15582388  0.67896749  0.19984735     0.16500
C1447       C  0.18262581  0.69492513  0.19798895     0.02800
C1448       C  0.19385705  0.70930291  0.22328988    -0.12300
C1449       C  0.17871701  0.70786862  0.25062162    -0.03400
C1450       C  0.15101080  0.69302703  0.25190376     0.02100
C1451       C  0.14308080  0.66329979  0.17394889     0.08900
N1452       N  0.19934267  0.69539886  0.17097402     0.65300
H1453       H  0.21523702  0.72033271  0.22187915     0.18200
N1454       N  0.13328310  0.69316499  0.27839304     0.75700
H1455       H  0.11897042  0.66697554  0.22789542     0.09700
C1456       C  0.14327665  0.63203829  0.17239126     0.03400
C1457       C  0.12824873  0.61751263  0.14939163    -0.05300
C1458       C  0.11214222  0.63361205  0.12796801    -0.23700
C1459       C  0.11210901  0.66514340  0.12964108     0.12600
C1460       C  0.12777860  0.67960220  0.15235131    -0.12900
N1461       N  0.15799383  0.61475727  0.19457265     0.64300
H1462       H  0.12849480  0.59335553  0.14892260     0.12200
N1463       N  0.09585486  0.68286674  0.10892822     0.61000
H1464       H  0.12712462  0.70373050  0.15375857     0.08300
O1465       O  0.12247521  0.66916009  0.28813348    -0.40500
O1466       O  0.12490893  0.71760721  0.28949533    -0.39700
O1467       O  0.20057481  0.71894506  0.15576793    -0.39700
O1468       O  0.21599890  0.67372277  0.16446666    -0.37400
O1469       O  0.07004425  0.69167389  0.11553436    -0.38300
O1470       O  0.10908951  0.69411383  0.08690323    -0.34500
O1471       O  0.14316948  0.60338371  0.21549788    -0.35900
O1472       O  0.18477172  0.60731804  0.19089367    -0.40100
C1473       C  0.73280689  0.41855800  0.39927668    -0.13800
C1474       C  0.70462186  0.40778702  0.39185884     0.16500
C1475       C  0.70194169  0.38625321  0.36923774     0.02800
C1476       C  0.72742968  0.37515896  0.35521209    -0.12300
C1477       C  0.75588153  0.38483212  0.36361989    -0.03400
C1478       C  0.75832705  0.40732575  0.38558689     0.02100
C1479       C  0.67833671  0.42005145  0.40746737     0.08900
N1480       N  0.67361967  0.37436856  0.36132360     0.65300
H1481       H  0.72487457  0.35787447  0.33852272     0.18200
N1482       N  0.78643619  0.41930419  0.39414015     0.75700
H1483       H  0.73503796  0.43599002  0.41588623     0.09700
C1484       C  0.67642651  0.41953477  0.43872321     0.03400
C1485       C  0.65260429  0.43339683  0.45302912    -0.05300
C1486       C  0.63020406  0.44791683  0.43682377    -0.23700
C1487       C  0.63176017  0.44774103  0.40542324     0.12600
C1488       C  0.65586366  0.43409082  0.39111094    -0.12900
N1489       N  0.69858448  0.40503973  0.45626012     0.64300
H1490       H  0.65204892  0.43321389  0.47716770     0.12200
N1491       N  0.60891796  0.46083399  0.38772336     0.61000
H1492       H  0.65722712  0.43479861  0.36700909     0.08300
O1493       O  0.79772704  0.41202516  0.41873578    -0.40500
O1494       O  0.79763653  0.44039470  0.37941965    -0.39700
O1495       O  0.66335603  0.37880492  0.33562897    -0.39700
O1496       O  0.66093223  0.35607502  0.37838906    -0.37400
O1497       O  0.61449692  0.48369951  0.37245984    -0.38300
O1498       O  0.58532461  0.44650704  0.38298653    -0.34500
O1499       O  0.71537029  0.42028103  0.47273813    -0.35900
O1500       O  0.69818905  0.37708417  0.45890299    -0.40100
C1501       C  0.15143100  0.71869324  0.68702183    -0.13800
C1502       C  0.17036222  0.69401948  0.68445149     0.16500
C1503       C  0.20086403  0.69750364  0.69020492     0.02800
C1504       C  0.21178787  0.72537158  0.69867918    -0.12300
C1505       C  0.19280375  0.75012720  0.70156007    -0.03400
C1506       C  0.16221463  0.74650221  0.69565345     0.02100
C1507       C  0.15799214  0.66598371  0.67255057     0.08900
N1508       N  0.22091315  0.67290377  0.68787758     0.65300
H1509       H  0.23538728  0.72758025  0.70303082     0.18200
N1510       N  0.14159550  0.77049234  0.69903190     0.75700
H1511       H  0.12798146  0.71644911  0.68187941     0.09700
C1512       C  0.13268805  0.65283881  0.68544688     0.03400
C1513       C  0.11687550  0.63124703  0.66971223    -0.05300
C1514       C  0.12610535  0.62200732  0.64128672    -0.23700
C1515       C  0.15315965  0.63318747  0.62976252     0.12600
C1516       C  0.16853688  0.65527342  0.64525259    -0.12900
N1517       N  0.12240512  0.66182896  0.71419026     0.64300
H1518       H  0.09666926  0.62243420  0.67951097     0.12200
N1519       N  0.16491812  0.62311988  0.60198363     0.61000
H1520       H  0.18800524  0.66524776  0.63504738     0.08300
O1521       O  0.12992888  0.77533645  0.72410916    -0.40500
O1522       O  0.13090202  0.78283722  0.67625820    -0.39700
O1523       O  0.24037835  0.67264170  0.66765205    -0.39700
O1524       O  0.22255244  0.65435811  0.70885114    -0.37400
O1525       O  0.16095121  0.63851686  0.57890511    -0.38300
O1526       O  0.18353510  0.60210448  0.60153996    -0.34500
O1527       O  0.09743214  0.67432878  0.71690433    -0.35900
O1528       O  0.13596229  0.65303159  0.73707347    -0.40100
C1529       C  0.92974567  0.61233458  0.69342343    -0.13800
C1530       C  0.93298437  0.64200141  0.68411253     0.16500
C1531       C  0.95517020  0.64892719  0.66294440     0.02800
C1532       C  0.97363938  0.62648110  0.65189528    -0.12300
C1533       C  0.96957927  0.59674617  0.66025202    -0.03400
C1534       C  0.94744984  0.58965189  0.68127900     0.02100
C1535       C  0.91375524  0.66579913  0.69683001     0.08900
N1536       N  0.95789977  0.67828475  0.65092564     0.65300
H1537       H  0.99005295  0.63209831  0.63507050     0.18200
N1538       N  0.94317262  0.55969052  0.69097757     0.75700
H1539       H  0.91343378  0.60670582  0.71031446     0.09700
C1540       C  0.88247330  0.66337360  0.69749258     0.03400
C1541       C  0.86522272  0.68782276  0.70633336    -0.05300
C1542       C  0.87860618  0.71489169  0.71400174    -0.23700
C1543       C  0.90978358  0.71656458  0.71575399     0.12600
C1544       C  0.92700424  0.69200630  0.70743372    -0.12900
N1545       N  0.86781410  0.63719697  0.68702837     0.64300
H1546       H  0.84119764  0.68635547  0.70486746     0.12200
N1547       N  0.92417645  0.74306107  0.72594449     0.61000
H1548       H  0.95103104  0.69363860  0.70865345     0.08300
O1549       O  0.91920618  0.54645961  0.68507027    -0.40500
O1550       O  0.96085216  0.54849328  0.70960281    -0.39700
O1551       O  0.98202244  0.69229568  0.65348761    -0.39700
O1552       O  0.93770153  0.68853521  0.63443509    -0.37400
O1553       O  0.91958097  0.75225008  0.75208173    -0.38300
O1554       O  0.94439588  0.75485658  0.71049075    -0.34500
O1555       O  0.85300496  0.62147048  0.70492602    -0.35900
O1556       O  0.86582147  0.63242935  0.65945729    -0.40100
C1557       C  0.17439416  0.36624904  0.37698194    -0.13800
C1558       C  0.17229494  0.39734874  0.37889302     0.16500
C1559       C  0.18380894  0.41511058  0.35598986     0.02800
C1560       C  0.19600695  0.40171983  0.33088812    -0.12300
C1561       C  0.19712749  0.37059439  0.32805977    -0.03400
C1562       C  0.18716242  0.35268632  0.35187481     0.02100
C1563       C  0.15682892  0.41157463  0.40397347     0.08900
N1564       N  0.18193123  0.44685340  0.35736872     0.65300
H1565       H  0.20398391  0.41591388  0.31306751     0.18200
N1566       N  0.18867021  0.32093045  0.35040364     0.75700
H1567       H  0.16571592  0.35252086  0.39483529     0.09700
C1568       C  0.12571419  0.41365476  0.40420857     0.03400
C1569       C  0.11158414  0.43133270  0.42551444    -0.05300
C1570       C  0.12807431  0.44713232  0.44682067    -0.23700
C1571       C  0.15926848  0.44351448  0.44756540     0.12600
C1572       C  0.17337694  0.42614970  0.42587081    -0.12900
N1573       N  0.10836010  0.39931897  0.38184125     0.64300
H1574       H  0.08760293  0.43357281  0.42458092     0.12200
N1575       N  0.17679735  0.45663143  0.47055386     0.61000
H1576       H  0.19741660  0.42429190  0.42585860     0.08300
O1577       O  0.16534248  0.30608938  0.34593561    -0.40500
O1578       O  0.21194633  0.30773630  0.35877337    -0.39700
O1579       O  0.20480886  0.46192060  0.36318965    -0.39700
O1580       O  0.15863536  0.45987411  0.34880702    -0.37400
O1581       O  0.17696944  0.44507724  0.49611122    -0.38300
O1582       O  0.19539233  0.47664534  0.46424907    -0.34500
O1583       O  0.09472961  0.37556561  0.38789404    -0.35900
O1584       O  0.10328752  0.41248367  0.35761494    -0.40100
C1585       C  0.16710857  0.65173903  0.45811288    -0.13800
C1586       C  0.17620090  0.63744967  0.43200062     0.16500
C1587       C  0.17472171  0.60619417  0.43019531     0.02800
C1588       C  0.16268852  0.58995260  0.45384927    -0.12300
C1589       C  0.15202274  0.60421430  0.47965988    -0.03400
C1590       C  0.15486284  0.63563584  0.48179699     0.02100
C1591       C  0.18373437  0.65582214  0.40577832     0.08900
N1592       N  0.18533782  0.59068053  0.40446056     0.65300
H1593       H  0.16133221  0.56594479  0.45168729     0.18200
N1594       N  0.14406339  0.65195177  0.50692680     0.75700
H1595       H  0.16796938  0.67583047  0.45946275     0.09700
C1596       C  0.16464294  0.65680439  0.38107557     0.03400
C1597       C  0.17193051  0.67460698  0.35679821    -0.05300
C1598       C  0.19757754  0.69242457  0.35642952    -0.23700
C1599       C  0.21631455  0.69197418  0.38170595     0.12600
C1600       C  0.20929728  0.67352821  0.40590047    -0.12900
N1601       N  0.13708200  0.64096468  0.38099467     0.64300
H1602       H  0.15629049  0.67497527  0.33777251     0.12200
N1603       N  0.24256790  0.70971026  0.38318990     0.61000
H1604       H  0.22402174  0.67318058  0.42534638     0.08300
O1605       O  0.11652475  0.65651201  0.50958615    -0.40500
O1606       O  0.16188835  0.66776558  0.52167172    -0.39700
O1607       O  0.21265191  0.59123819  0.39818408    -0.39700
O1608       O  0.16855117  0.57271313  0.39099114    -0.37400
O1609       O  0.24052016  0.73670653  0.39073903    -0.38300
O1610       O  0.26757612  0.69705579  0.38399764    -0.34500
O1611       O  0.11652534  0.64890765  0.39840931    -0.35900
O1612       O  0.13138500  0.62306507  0.36012953    -0.40100
C1613       C  0.83935851  0.41466585  0.66953679    -0.13800
C1614       C  0.86717445  0.40171985  0.67419363     0.16500
C1615       C  0.87019819  0.37903150  0.69552624     0.02800
C1616       C  0.84496866  0.36828756  0.71036693    -0.12300
C1617       C  0.81660336  0.38006236  0.70440372    -0.03400
C1618       C  0.81424204  0.40429992  0.68444360     0.02100
C1619       C  0.89261560  0.41291883  0.65676023     0.08900
N1620       N  0.89853052  0.36604403  0.70152676     0.65300
H1621       H  0.84751930  0.34988264  0.72576719     0.18200
N1622       N  0.78672181  0.41934778  0.67963413     0.75700
H1623       H  0.83711968  0.43312298  0.65411617     0.09700
C1624       C  0.89323136  0.40991563  0.62556635     0.03400
C1625       C  0.91571612  0.42358852  0.60909529    -0.05300
C1626       C  0.93722935  0.44114578  0.62313280    -0.23700
C1627       C  0.93683166  0.44385032  0.65442799     0.12600
C1628       C  0.91474799  0.42948755  0.67098100    -0.12900
N1629       N  0.87051657  0.39390876  0.61026634     0.64300
H1630       H  0.91555417  0.42153805  0.58503693     0.12200
N1631       N  0.95853651  0.46127568  0.66965049     0.61000
H1632       H  0.91419228  0.43223289  0.69496536     0.08300
O1633       O  0.78068096  0.44210043  0.69498461    -0.40500
O1634       O  0.77238674  0.41447002  0.65606058    -0.39700
O1635       O  0.91202442  0.37257568  0.72519676    -0.39700
O1636       O  0.90823789  0.34533063  0.68519423    -0.37400
O1637       O  0.95235862  0.48754856  0.67746943    -0.38300
O1638       O  0.98180319  0.44902092  0.67931849    -0.34500
O1639       O  0.84941657  0.40798524  0.59833483    -0.35900
O1640       O  0.87441081  0.36679565  0.60401675    -0.40100
C1641       C  0.95904703  0.39990143  0.41732834    -0.13800
C1642       C  0.92934143  0.39718196  0.42624444     0.16500
C1643       C  0.92099783  0.40706260  0.45488625     0.02800
C1644       C  0.94219205  0.41968427  0.47377380    -0.12300
C1645       C  0.97177370  0.42339147  0.46456098    -0.03400
C1646       C  0.98020487  0.41293126  0.43600878     0.02100
C1647       C  0.90732952  0.38371197  0.40567936     0.08900
N1648       N  0.89075411  0.40583650  0.46455583     0.65300
H1649       H  0.93504167  0.42782731  0.49537745     0.18200
N1650       N  0.01020219  0.41489391  0.42573272     0.75700
H1651       H  0.96595275  0.39167639  0.39566869     0.09700
C1652       C  0.90299663  0.39496551  0.37668581     0.03400
C1653       C  0.88023948  0.38347827  0.35891149    -0.05300
C1654       C  0.86133934  0.36128521  0.36973596    -0.23700
C1655       C  0.86660058  0.34889954  0.39793822     0.12600
C1656       C  0.88978212  0.35981922  0.41547375    -0.12900
N1657       N  0.91969313  0.41980017  0.36601498     0.64300
H1658       H  0.87581532  0.39361484  0.33745998     0.12200
N1659       N  0.84762371  0.32626406  0.40958175     0.61000
H1660       H  0.89336980  0.35034150  0.43737134     0.08300
O1661       O  0.01691013  0.43343874  0.40577595    -0.40500
O1662       O  0.02865788  0.39502257  0.43292568    -0.39700
O1663       O  0.88371540  0.38980739  0.48647746    -0.39700
O1664       O  0.87200194  0.42377843  0.45392376    -0.37400
O1665       O  0.85521442  0.29929716  0.40744215    -0.38300
O1666       O  0.82603878  0.33337145  0.42606862    -0.34500
O1667       O  0.93720999  0.41647310  0.34432552    -0.35900
O1668       O  0.91329990  0.44569954  0.37487615    -0.40100
C1669       C  0.41571249  0.94439754  0.18553354    -0.13800
C1670       C  0.39444720  0.92711586  0.17096023     0.16500
C1671       C  0.39619932  0.92310896  0.14003689     0.02800
C1672       C  0.41889656  0.93681072  0.12397423    -0.12300
C1673       C  0.43992389  0.95499095  0.13821482    -0.03400
C1674       C  0.43851946  0.95825827  0.16952623     0.02100
C1675       C  0.36942701  0.91474210  0.18790870     0.08900
N1676       N  0.37458813  0.90573925  0.12460259     0.65300
H1677       H  0.41933602  0.93398613  0.10000929     0.18200
N1678       N  0.46019090  0.97511747  0.18546825     0.75700
H1679       H  0.41443182  0.94730689  0.20946623     0.09700
C1680       C  0.37210782  0.88808611  0.20402205     0.03400
C1681       C  0.34708721  0.87595904  0.21805412    -0.05300
C1682       C  0.31927736  0.89006332  0.21587002    -0.23700
C1683       C  0.31724497  0.91770984  0.20093594     0.12600
C1684       C  0.34223090  0.92963478  0.18701465    -0.12900
N1685       N  0.39968643  0.87235996  0.20482148     0.64300
H1686       H  0.34907480  0.85464746  0.22914547     0.12200
N1687       N  0.28994016  0.93393113  0.19957059     0.61000
H1688       H  0.34033108  0.95049806  0.17505724     0.08300
O1689       O  0.48603717  0.96474612  0.18867029    -0.40500
O1690       O  0.45219247  0.99737618  0.20065979    -0.39700
O1691       O  0.35103654  0.91790519  0.11550883    -0.39700
O1692       O  0.38113874  0.87983654  0.11588565    -0.37400
O1693       O  0.27784656  0.93863451  0.17473316    -0.38300
O1694       O  0.28080950  0.94777685  0.22224949    -0.34500
O1695       O  0.41755206  0.87673446  0.22592721    -0.35900
O1696       O  0.40747540  0.85643962  0.18301431    -0.40100
C1697       C  0.88697157  0.19528223  0.37063358    -0.13800
C1698       C  0.91276345  0.17853005  0.36556059     0.16500
C1699       C  0.92255486  0.17353690  0.33621506     0.02800
C1700       C  0.90595774  0.18458719  0.31245577    -0.12300
C1701       C  0.87949553  0.20040874  0.31736932    -0.03400
C1702       C  0.87032777  0.20633471  0.34683181     0.02100
C1703       C  0.92784289  0.16434629  0.39092657     0.08900
N1704       N  0.94830515  0.15583233  0.33015948     0.65300
H1705       H  0.91342569  0.18003914  0.28993530     0.18200
N1706       N  0.84322949  0.22177833  0.35293454     0.75700
H1707       H  0.87925918  0.19901947  0.39321997     0.09700
C1708       C  0.95657639  0.17279213  0.39974400     0.03400
C1709       C  0.97099723  0.15683362  0.42218545    -0.05300
C1710       C  0.95693784  0.13285623  0.43649610    -0.23700
C1711       C  0.92756421  0.12538511  0.42846956     0.12600
C1712       C  0.91353360  0.14086850  0.40548411    -0.12900
N1713       N  0.97106309  0.19782663  0.38652023     0.64300
H1714       H  0.99338525  0.16313522  0.42828702     0.12200
N1715       N  0.91146213  0.10260803  0.44377350     0.61000
H1716       H  0.89125885  0.13459022  0.39894462     0.08300
O1717       O  0.84391068  0.24853060  0.36148376    -0.40500
O1718       O  0.81904657  0.20765170  0.35353592    -0.39700
O1719       O  0.94752471  0.12810625  0.33457848    -0.39700
O1720       O  0.96968399  0.16686867  0.31574902    -0.37400
O1721       O  0.90678149  0.10482571  0.47137025    -0.38300
O1722       O  0.89894710  0.08218105  0.42922216    -0.34500
O1723       O  0.96105274  0.22368810  0.39111869    -0.35900
O1724       O  0.99623356  0.19466527  0.37453208    -0.40100
C1725       C  0.20381767  0.36449294  0.89501119    -0.13800
C1726       C  0.18179754  0.36051389  0.91667195     0.16500
C1727       C  0.17201366  0.33161643  0.92346699     0.02800
C1728       C  0.18373564  0.30723035  0.90813299    -0.12300
C1729       C  0.20519797  0.31095739  0.88568374    -0.03400
C1730       C  0.21546572  0.34008268  0.87932839     0.02100
C1731       C  0.16613538  0.38667768  0.92900813     0.08900
N1732       N  0.14971188  0.32682068  0.94559415     0.65300
H1733       H  0.17568156  0.28518702  0.91378538     0.18200
N1734       N  0.23599353  0.34557680  0.85568587     0.75700
H1735       H  0.21091070  0.38683662  0.88919970     0.09700
C1736       C  0.17853743  0.40457429  0.95136703     0.03400
C1737       C  0.16208257  0.42836461  0.96324287    -0.05300
C1738       C  0.13304125  0.43459352  0.95327959    -0.23700
C1739       C  0.12130830  0.41689492  0.93005126     0.12600
C1740       C  0.13782059  0.39327984  0.91830475    -0.12900
N1741       N  0.20721494  0.39795932  0.96312571     0.64300
H1742       H  0.17182833  0.44137837  0.98104856     0.12200
N1743       N  0.09191986  0.42119611  0.91929560     0.61000
H1744       H  0.12817414  0.37954259  0.90094531     0.08300
O1745       O  0.26219509  0.35350541  0.86155766    -0.40500
O1746       O  0.22671856  0.34709670  0.82927919    -0.39700
O1747       O  0.12396189  0.31894469  0.93793413    -0.39700
O1748       O  0.15686079  0.32622823  0.97268727    -0.37400
O1749       O  0.08735568  0.43892760  0.89804903    -0.38300
O1750       O  0.07204251  0.40294175  0.92675460    -0.34500
O1751       O  0.22920064  0.41379767  0.95598515    -0.35900
O1752       O  0.20994040  0.37849204  0.98313401    -0.40100
C1753       C  0.16861620  0.92032347  0.93035356    -0.13800
C1754       C  0.17867423  0.93500193  0.90478633     0.16500
C1755       C  0.16361199  0.96043696  0.89469299     0.02800
C1756       C  0.13969039  0.97166502  0.91104389    -0.12300
C1757       C  0.13034290  0.95791523  0.93757611    -0.03400
C1758       C  0.14459629  0.93138657  0.94672548     0.02100
C1759       C  0.20542238  0.92375977  0.88948514     0.08900
N1760       N  0.17337807  0.97599936  0.86878325     0.65300
H1761       H  0.12916089  0.99201098  0.90340143     0.18200
N1762       N  0.13494134  0.91528410  0.97236648     0.75700
H1763       H  0.17969875  0.90017129  0.93777754     0.09700
C1764       C  0.23281577  0.92298585  0.90431743     0.03400
C1765       C  0.25735461  0.90991652  0.89062482    -0.05300
C1766       C  0.25530762  0.89717846  0.86209491    -0.23700
C1767       C  0.22790207  0.89898753  0.84677494     0.12600
C1768       C  0.20328569  0.91222148  0.86062388    -0.12900
N1769       N  0.23593674  0.93518708  0.93351351     0.64300
H1770       H  0.27799458  0.90915032  0.90299640     0.12200
N1771       N  0.22446758  0.88730457  0.81742033     0.61000
H1772       H  0.18214890  0.91279071  0.84906658     0.08300
O1773       O  0.15017717  0.91606912  0.99585638    -0.40500
O1774       O  0.11430214  0.89648111  0.96994912    -0.39700
O1775       O  0.15918347  0.97328704  0.84478951    -0.39700
O1776       O  0.19275963  0.99610479  0.87115642    -0.37400
O1777       O  0.21247548  0.86219348  0.81379491    -0.38300
O1778       O  0.22811812  0.90419346  0.79532571    -0.34500
O1779       O  0.23855555  0.91802013  0.95553792    -0.35900
O1780       O  0.24070366  0.96267708  0.93668650    -0.40100
C1781       C  0.11835102  0.89025690  0.14099982    -0.13800
C1782       C  0.14789370  0.88587160  0.13241927     0.16500
C1783       C  0.15663557  0.89271628  0.10316415     0.02800
C1784       C  0.13651286  0.90633733  0.08384000    -0.12300
C1785       C  0.10728810  0.91280444  0.09290391    -0.03400
C1786       C  0.09788702  0.90322113  0.12146222     0.02100
C1787       C  0.17033520  0.87918036  0.15535531     0.08900
N1788       N  0.18610921  0.88646124  0.09303794     0.65300
H1789       H  0.14412265  0.91245984  0.06177420     0.18200
N1790       N  0.06810928  0.90764032  0.13158444     0.75700
H1791       H  0.11146641  0.88487424  0.16349990     0.09700
C1792       C  0.18863330  0.90215661  0.16602308     0.03400
C1793       C  0.21120422  0.89565148  0.18610174    -0.05300
C1794       C  0.21581666  0.86654889  0.19644924    -0.23700
C1795       C  0.19641756  0.84373149  0.18706542     0.12600
C1796       C  0.17392788  0.85018464  0.16638875    -0.12900
N1797       N  0.18422315  0.93234342  0.15690221     0.64300
H1798       H  0.22527401  0.91369437  0.19377321     0.12200
N1799       N  0.20010544  0.81382873  0.19719111     0.61000
H1800       H  0.15962386  0.83244768  0.15848094     0.08300
O1801       O  0.06219176  0.92915046  0.14867922    -0.40500
O1802       O  0.04921523  0.88725157  0.12796843    -0.39700
O1803       O  0.19267513  0.86039802  0.08480802    -0.39700
O1804       O  0.20354542  0.90760067  0.08709972    -0.37400
O1805       O  0.21497268  0.79556456  0.18185453    -0.38300
O1806       O  0.18508364  0.80462014  0.21902272    -0.34500
O1807       O  0.16263066  0.94697671  0.16731965    -0.35900
O1808       O  0.20442067  0.94575608  0.14281229    -0.40100
C1809       C  0.92518158  0.16932044  0.92519959    -0.13800
C1810       C  0.89884997  0.17893730  0.93881785     0.16500
C1811       C  0.88741960  0.16295369  0.96311884     0.02800
C1812       C  0.90311765  0.13849351  0.97424807    -0.12300
C1813       C  0.93031394  0.12952273  0.96153627    -0.03400
C1814       C  0.94083036  0.14473863  0.93608759     0.02100
C1815       C  0.88375662  0.20569179  0.92709210     0.08900
N1816       N  0.86072175  0.17224761  0.97764688     0.65300
H1817       H  0.89444174  0.12723218  0.99376030     0.18200
N1818       N  0.96702921  0.13530075  0.92072172     0.75700
H1819       H  0.93362516  0.18101584  0.90582247     0.09700
C1820       C  0.89782877  0.23357946  0.92793287     0.03400
C1821       C  0.88486919  0.25798574  0.91378866    -0.05300
C1822       C  0.85782874  0.25531966  0.89838174    -0.23700
C1823       C  0.84322060  0.22734650  0.89847871     0.12600
C1824       C  0.85629120  0.20293243  0.91283303    -0.12900
N1825       N  0.92556430  0.23730698  0.94284277     0.64300
H1826       H  0.89667225  0.27902552  0.91431366     0.12200
N1827       N  0.81550556  0.22303788  0.88368972     0.61000
H1828       H  0.84535983  0.18140500  0.91202133     0.08300
O1829       O  0.98994599  0.15140865  0.92114445    -0.40500
O1830       O  0.96575333  0.11350890  0.90304001    -0.39700
O1831       O  0.83725339  0.15732461  0.97432721    -0.39700
O1832       O  0.86177765  0.19217706  0.99740812    -0.37400
O1833       O  0.81513515  0.21153888  0.85808065    -0.38300
O1834       O  0.79158238  0.22550344  0.89814232    -0.34500
O1835       O  0.94917197  0.23990835  0.92791878    -0.35900
O1836       O  0.92593232  0.24215148  0.97047250    -0.40100
C1837       C  0.10735393  0.15716292  0.90700679    -0.13800
C1838       C  0.12549930  0.14377152  0.88538439     0.16500
C1839       C  0.12468466  0.11261767  0.88193000     0.02800
C1840       C  0.10588720  0.09553658  0.90003620    -0.12300
C1841       C  0.08762769  0.10898041  0.92171003    -0.03400
C1842       C  0.08865590  0.14024756  0.92513413     0.02100
C1843       C  0.14720281  0.16284961  0.86943065     0.08900
N1844       N  0.14235730  0.09812355  0.85978840     0.65300
H1845       H  0.10537422  0.07157662  0.89684506     0.18200
N1846       N  0.07240162  0.15507114  0.94815842     0.75700
H1847       H  0.10866254  0.18101804  0.91078843     0.09700
C1848       C  0.13772619  0.18925120  0.85540870     0.03400
C1849       C  0.15823881  0.21167504  0.84913777    -0.05300
C1850       C  0.18841051  0.20788658  0.85555868    -0.23700
C1851       C  0.19845493  0.18031463  0.86656893     0.12600
C1852       C  0.17775862  0.15808613  0.87368759    -0.12900
N1853       N  0.10708248  0.19403640  0.84867436     0.64300
H1854       H  0.15040101  0.23265430  0.84005648     0.12200
N1855       N  0.22903726  0.17581302  0.87365022     0.61000
H1856       H  0.18539558  0.13805140  0.88480548     0.08300
O1857       O  0.05203095  0.17314983  0.94144961    -0.40500
O1858       O  0.08182048  0.15417849  0.97454216    -0.39700
O1859       O  0.16299021  0.08076633  0.86751557    -0.39700
O1860       O  0.13431222  0.09884175  0.83295064    -0.37400
O1861       O  0.23864810  0.18327576  0.89890412    -0.38300
O1862       O  0.24519001  0.16041549  0.85657588    -0.34500
O1863       O  0.09319176  0.21532980  0.86067489    -0.35900
O1864       O  0.09525951  0.17985838  0.82757476    -0.40100
C1865       C  0.92149805  0.92419851  0.17563591    -0.13800
C1866       C  0.93051150  0.89468523  0.17956500     0.16500
C1867       C  0.95205455  0.88227077  0.16066565     0.02800
C1868       C  0.96454018  0.89968329  0.13818551    -0.12300
C1869       C  0.95595605  0.92959678  0.13424862    -0.03400
C1870       C  0.93398677  0.94179187  0.15334026     0.02100
C1871       C  0.91745044  0.87772412  0.20417999     0.08900
N1872       N  0.96135963  0.85204015  0.16401479     0.65300
H1873       H  0.98130072  0.88968774  0.12394966     0.18200
N1874       N  0.92468062  0.97215003  0.15113948     0.75700
H1875       H  0.90493987  0.93381502  0.19039713     0.09700
C1876       C  0.93229076  0.87527195  0.23152782     0.03400
C1877       C  0.91758095  0.86299018  0.25591333    -0.05300
C1878       C  0.88808306  0.85335752  0.25355907    -0.23700
C1879       C  0.87361087  0.85482920  0.22576964     0.12600
C1880       C  0.88847007  0.86694640  0.20131472    -0.12900
N1881       N  0.96155850  0.88689355  0.23532067     0.64300
H1882       H  0.92902361  0.86185536  0.27711820     0.12200
N1883       N  0.84312635  0.84664194  0.22263843     0.61000
H1884       H  0.87685617  0.86926189  0.18030057     0.08300
O1885       O  0.93540038  0.99131914  0.16859591    -0.40500
O1886       O  0.90229993  0.97869562  0.13563783    -0.39700
O1887       O  0.94853664  0.83187114  0.14934725    -0.39700
O1888       O  0.98559340  0.84635260  0.17682985    -0.37400
O1889       O  0.82310508  0.86555858  0.22815064    -0.38300
O1890       O  0.83647936  0.82280577  0.20937734    -0.34500
O1891       O  0.96503487  0.91443552  0.23959725    -0.35900
O1892       O  0.98287860  0.86931521  0.24015288    -0.40100
C1893       C  0.87550361  0.12419707  0.11918010    -0.13800
C1894       C  0.87646915  0.11923784  0.14992335     0.16500
C1895       C  0.89100205  0.09368457  0.16079314     0.02800
C1896       C  0.90591115  0.07478430  0.14114282    -0.12300
C1897       C  0.90698425  0.08083655  0.11050141    -0.03400
C1898       C  0.89039656  0.10522275  0.09939509     0.02100
C1899       C  0.86395717  0.14166232  0.17063456     0.08900
N1900       N  0.89258880  0.08770063  0.19195983     0.65300
H1901       H  0.91799311  0.05601317  0.15033289     0.18200
N1902       N  0.88858129  0.11125148  0.06825381     0.75700
H1903       H  0.86352009  0.14329697  0.11051278     0.09700
C1904       C  0.87410336  0.17139561  0.17024606     0.03400
C1905       C  0.86520524  0.19107891  0.19267556    -0.05300
C1906       C  0.84694678  0.18135450  0.21589389    -0.23700
C1907       C  0.83525355  0.15236692  0.21530449     0.12600
C1908       C  0.84350918  0.13283485  0.19250102    -0.12900
N1909       N  0.89564417  0.18107302  0.14896275     0.64300
H1910       H  0.87458432  0.21333489  0.19330377     0.12200
N1911       N  0.81574616  0.14229481  0.23825470     0.61000
H1912       H  0.83490951  0.11026464  0.19256754     0.08300
O1913       O  0.90161877  0.13368035  0.05757837    -0.40500
O1914       O  0.87025943  0.09709811  0.05247379    -0.39700
O1915       O  0.87888859  0.06567280  0.20263992    -0.39700
O1916       O  0.91099448  0.10159250  0.20786571    -0.37400
O1917       O  0.78816291  0.14659817  0.23591689    -0.38300
O1918       O  0.82551057  0.12570040  0.25862911    -0.34500
O1919       O  0.88888169  0.20076978  0.13017760    -0.35900
O1920       O  0.92229118  0.17267987  0.15126405    -0.40100
loop_ 
_geom_bond_atom_site_label_1 
_geom_bond_atom_site_label_2 
_geom_bond_distance 
_geom_bond_site_symmetry_2 
_ccdc_geom_bond_type 
C1            N2   1.355       .  A
C1            N6   1.360       .  A
C1          C171   1.463       .  S
N2            C3   1.355       .  A
C3            N4   1.354       .  A
C3          C303   1.461       .  S
N4            C5   1.357       .  A
C5            N6   1.359       .  A
C5          C569   1.464       .  S
C7            N8   1.360       .  A
C7           N12   1.359       .  A
C7          C167   1.473       .  S
N8            C9   1.361       .  A
C9           N10   1.358       .  A
C9          C557   1.472       .  S
N10          C11   1.360       .  A
C11          N12   1.358       .  A
C11         C105   1.469       .  S
C13          N14   1.354       .  A
C13          N18   1.360       .  A
C13         C359   1.465       .  S
N14          C15   1.357       .  A
C15          N16   1.355       .  A
C15         C239   1.460       .  S
N16          C17   1.358       .  A
C17          N18   1.358       .  A
C17         C491   1.465       .  S
C19          N20   1.358       .  A
C19          N24   1.360       .  A
C19         C431   1.467       .  S
N20          C21   1.357       .  A
C21          N22   1.357       .  A
C21         C365   1.462       .  S
N22          C23   1.356       .  A
C23          N24   1.358       .  A
C23         C231   1.467       .  S
C25          N26   1.356       .  A
C25          N30   1.362       .  A
C25         C159   1.466       .  S
N26          C27   1.356       .  A
C27          N28   1.354       .  A
C27         C101   1.460       .  S
N28          C29   1.355       .  A
C29          N30   1.360       .  A
C29         C297   1.467       .  S
C31          N32   1.358       .  A
C31          N36   1.355       .  A
C31         C423   1.467       .  S
N32          C33   1.358       .  A
C33          N34   1.360       .  A
C33         C503   1.469       .  S
N34          C35   1.360       .  A
C35          N36   1.358       .  A
C35         C369   1.467       .  S
C37          N38   1.358       .  A
C37          N42   1.358       .  A
C37         C435   1.466       .  S
N38          C39   1.356       .  A
C39          N40   1.358       .  A
C39         C227   1.462       .  S
N40          C41   1.356       .  A
C41          N42   1.359       .  A
C41         C497   1.467       .  S
O43         Mg45   2.138   1_545  S
O43         Mg51   2.149   1_554  S
O43          C78   1.232       .  S
C44          O57   1.236   1_655  S
C44          O81   1.269       .  A
C44          H83   1.086       .  S
Mg45         O74   2.148       .  S
Mg45         O89   2.299   1_554  S
Mg45         O85   2.267       .  S
Mg45         O56   2.299   1_565  S
O46         Mg88   2.152       .  S
O46         Mg71   2.127   1_654  S
O46          C67   1.235   1_655  S
O47          C78   1.266       .  A
O47         Mg71   2.298   1_554  S
C48        C1869   1.483       .  S
C48          O50   1.270       .  A
C48          O62   1.272       .  A
O49          C77   1.270       .  A
O49         Mg51   2.300   1_565  S
O50         Mg82   2.241   1_655  S
Mg51         O57   2.125       .  S
Mg51         O65   2.237   1_545  S
Mg51         O53   2.302       .  S
C52        C1897   1.487       .  S
C52          O90   1.272       .  A
C52          O58   1.273       .  A
O53          C60   1.275       .  A
H54          C67   1.083       .  S
C55          O69   1.236   1_565  S
C55          O70   1.270       .  A
C55          H80   1.085       .  S
O56          C79   1.269       .  A
O57         Mg71   2.147       .  S
O58         Mg88   2.296       .  S
C59        C1813   1.486       .  S
C59          O72   1.273       .  A
C59          O64   1.276       .  A
C60        C1841   1.486       .  S
C60          O87   1.273       .  A
Mg61         O68   2.135   1_645  S
Mg61         O69   2.152       .  S
Mg61         O62   2.287   1_545  S
Mg61         O63   2.290   1_655  S
Mg61         O90   2.252       .  S
O63          C67   1.268       .  A
O64         Mg71   2.307   1_655  S
O65          C84   1.270       .  A
O66          C86   1.273       .  A
O66         Mg82   2.301       .  S
O68         Mg82   2.148       .  S
O68          C79   1.235   1_565  S
O69         Mg88   2.141       .  S
O70         Mg82   2.300   1_655  S
Mg71         O87   2.266       .  S
O72         Mg88   2.254   1_556  S
H73          C78   1.136       .  S
O74         Mg82   2.131       .  S
O74          C77   1.236   1_554  S
H75          C77   1.095       .  S
H76          C79   1.079       .  S
O81         Mg88   2.290   1_556  S
C84        C1757   1.483       .  S
C84          O89   1.274       .  A
O85          C86   1.274       .  A
C86        C1785   1.490       .  S
C91          N92   1.358       .  A
C91          N96   1.356       .  A
C91        C1850   1.472       .  S
N92          C93   1.362       .  A
C93          N94   1.359       .  A
C93         C573   1.465       .  S
N94          C95   1.356       .  A
C95          N96   1.356       .  A
C95        C1729   1.487       .  S
C97          N98   1.355       .  A
C97         N102   1.355       .  A
C97        C1906   1.463       .  S
N98          C99   1.357       .  A
C99         N100   1.356       .  A
C99        C1701   1.476       .  S
N100        C101   1.358       .  A
C101        N102   1.359       .  A
C103        N104   1.360       .  A
C103        N108   1.353       .  A
C103       C1794   1.480       .  S
N104        C105   1.364       .  A
C105        N106   1.362       .  A
N106        C107   1.358       .  A
C107        N108   1.352       .  A
C107       C1682   1.479       .  S
O109       Mg111   2.133       .  S
O109       Mg117   2.137   1_455  S
O109        C144   1.237       .  S
C110        O123   1.237       .  S
C110        O147   1.271   1_655  A
C110        H149   1.079       .  S
Mg111       O140   2.144       .  S
Mg111       O155   2.300       .  S
Mg111       O151   2.256       .  S
Mg111       O122   2.292       .  S
O112       Mg154   2.143       .  S
O112       Mg137   2.134       .  S
O112        C133   1.239       .  S
O113        C144   1.272       .  A
O113       Mg137   2.304       .  S
C114       C1589   1.491       .  S
C114        O116   1.271       .  A
C114        O128   1.277       .  A
O115        C143   1.271       .  A
O115       Mg117   2.299   1_455  S
O116       Mg148   2.265       .  S
Mg117       O123   2.141       .  S
Mg117       O131   2.272       .  S
Mg117       O119   2.291       .  S
C118       C1570   1.480       .  S
C118        O156   1.271       .  A
C118        O124   1.272       .  A
O119        C126   1.273       .  A
H120        C133   1.083       .  S
C121        O135   1.237       .  S
C121        O136   1.269       .  A
C121        H146   1.082       .  S
O122        C145   1.271       .  A
O123       Mg137   2.146   1_655  S
O124       Mg154   2.281       .  S
C125       C1645   1.488       .  S
C125        O138   1.269   1_655  A
C125        O130   1.278       .  A
C126       C1626   1.474       .  S
C126        O153   1.273       .  A
Mg127       O134   2.118       .  S
Mg127       O135   2.142       .  S
Mg127       O128   2.305       .  S
Mg127       O129   2.303       .  S
Mg127       O156   2.258       .  S
O129        C133   1.273       .  A
O130       Mg137   2.324   1_655  S
O131        C150   1.272       .  A
O132        C152   1.273       .  A
O132       Mg148   2.287       .  S
O134       Mg148   2.142       .  S
O134        C145   1.238       .  S
O135       Mg154   2.117       .  S
O136       Mg148   2.292       .  S
Mg137       O153   2.262   1_455  S
O138       Mg154   2.244       .  S
H139        C144   1.078       .  S
O140       Mg148   2.126       .  S
O140        C143   1.237       .  S
H141        C143   1.083       .  S
H142        C145   1.081       .  S
O147       Mg154   2.301       .  S
C150       C1533   1.474       .  S
C150        O155   1.275   1_655  A
O151        C152   1.273       .  A
C152       C1514   1.483       .  S
C157        N158   1.358       .  A
C157        N162   1.352       .  A
C157       C1654   1.466       .  S
N158        C159   1.362       .  A
C159        N160   1.359       .  A
N160        C161   1.359       .  A
C161        N162   1.354       .  A
C161       C1477   1.484       .  S
C163        N164   1.356       .  A
C163        N168   1.361       .  A
C163       C1598   1.492       .  S
N164        C165   1.353       .  A
C165        N166   1.359       .  A
C165       C1449   1.484       .  S
N166        C167   1.363       .  A
C167        N168   1.364       .  A
C169        N170   1.356       .  A
C169        N174   1.356       .  A
C169       C1542   1.472       .  S
N170        C171   1.359       .  A
C171        N172   1.357       .  A
N172        C173   1.358       .  A
C173        N174   1.357       .  A
C173       C1421   1.485       .  S
O175       Mg177   2.141   1_655  S
O175       Mg183   2.147   1_565  S
O175        C210   1.237   1_655  S
C176        O189   1.237       .  S
C176        O213   1.271       .  A
C176        H215   1.081       .  S
Mg177       O206   2.154   1_565  S
Mg177       O221   2.308   1_455  S
Mg177       O217   2.280       .  S
Mg177       O188   2.296       .  S
O178       Mg220   2.152       .  S
O178       Mg203   2.139   1_455  S
O178        C199   1.236       .  S
O179        C210   1.271   1_545  A
O179       Mg203   2.302   1_455  S
C180       C1365   1.492       .  S
C180        O182   1.272       .  A
C180        O194   1.277       .  A
O181        C209   1.271       .  A
O181       Mg183   2.298       .  S
O182       Mg214   2.263       .  S
Mg183       O189   2.124       .  S
Mg183       O197   2.233   1_545  S
Mg183       O185   2.289   1_545  S
C184       C1393   1.490       .  S
C184        O222   1.272       .  A
C184        O190   1.275       .  A
O185        C192   1.273       .  A
H186        C199   1.079       .  S
C187        O201   1.237       .  S
C187        O202   1.270       .  A
C187        H212   1.080       .  S
O188        C211   1.270   1_565  A
O189       Mg203   2.145       .  S
O190       Mg220   2.296       .  S
C191       C1710   1.479       .  S
C191        O204   1.271       .  A
C191        O196   1.276       .  A
C192       C1309   1.483       .  S
C192        O219   1.274   1_565  A
Mg193       O200   2.129       .  S
Mg193       O201   2.149       .  S
Mg193       O194   2.307       .  S
Mg193       O195   2.297       .  S
Mg193       O222   2.267       .  S
O195        C199   1.270       .  A
O196       Mg203   2.298       .  S
O197        C216   1.268       .  A
O198        C218   1.274   1_545  A
O198       Mg214   2.286       .  S
O200       Mg214   2.148       .  S
O200        C211   1.236       .  S
O201       Mg220   2.132       .  S
O202       Mg214   2.293       .  S
Mg203       O219   2.295       .  S
O204       Mg220   2.248   1_655  S
H205        C210   1.079       .  S
O206       Mg214   2.141       .  S
O206        C209   1.237   1_455  S
H207        C209   1.084       .  S
H208        C211   1.078       .  S
O213       Mg220   2.296   1_655  S
C216       C1430   1.484       .  S
C216        O221   1.277       .  A
O217        C218   1.274       .  A
C218       C1337   1.482       .  S
C223        N224   1.358       .  A
C223        N228   1.360       .  A
C223       C1346   1.473       .  S
N224        C225   1.356       .  A
C225        N226   1.354       .  A
C225       C1505   1.481       .  S
N226        C227   1.354       .  A
C227        N228   1.361       .  A
C229        N230   1.356       .  A
C229        N234   1.354       .  A
C229       C1402   1.466       .  S
N230        C231   1.360       .  A
C231        N232   1.360       .  A
N232        C233   1.360       .  A
C233        N234   1.356       .  A
C233       C1290   1.485       .  S
C235        N236   1.356       .  A
C235        N240   1.360       .  A
C235       C1318   1.471       .  S
N236        C237   1.354       .  A
C237        N238   1.352       .  A
C237       C1878   1.471       .  S
N238        C239   1.356       .  A
C239        N240   1.362       .  A
O241       Mg243   2.125       .  S
O241       Mg249   2.149       .  S
O241        C276   1.237       .  S
C242        O255   1.238       .  S
C242        O279   1.272       .  A
C242        H281   1.084       .  S
Mg243       O272   2.147       .  S
Mg243       O287   2.295       .  S
Mg243       O283   2.276       .  S
Mg243       O254   2.300       .  S
O244       Mg286   2.148   1_556  S
O244       Mg269   2.132       .  S
O244        C265   1.235       .  S
O245        C276   1.270   1_556  A
O245       Mg269   2.292       .  S
C246       C1122   1.482       .  S
C246        O248   1.270       .  A
C246        O260   1.273       .  A
O247        C275   1.271       .  A
O247       Mg249   2.297       .  S
O248       Mg280   2.241       .  S
Mg249       O255   2.139       .  S
Mg249       O263   2.260       .  S
Mg249       O251   2.307       .  S
C250       C1150   1.488   1_554  S
C250        O288   1.272       .  A
C250        O256   1.277   1_554  A
O251        C258   1.275   1_554  A
H252        C265   1.081       .  S
C253        O267   1.238       .  S
C253        O268   1.272       .  A
C253        H278   1.082       .  S
O254        C277   1.271       .  A
O255       Mg269   2.146   1_554  S
O256       Mg286   2.327   1_556  S
C257       C1234   1.484       .  S
C257        O270   1.272       .  A
C257        O262   1.277       .  A
C258       C1253   1.488       .  S
C258        O285   1.275       .  A
Mg259       O266   2.132       .  S
Mg259       O267   2.146       .  S
Mg259       O260   2.296       .  S
Mg259       O261   2.293       .  S
Mg259       O288   2.248       .  S
O261        C265   1.268   1_554  A
O262       Mg269   2.299       .  S
O263        C282   1.272       .  A
O264        C284   1.274       .  A
O264       Mg280   2.295       .  S
O266       Mg280   2.143       .  S
O266        C277   1.237       .  S
O267       Mg286   2.137       .  S
O268       Mg280   2.301       .  S
Mg269       O285   2.275       .  S
O270       Mg286   2.257   1_556  S
H271        C276   1.079       .  S
O272       Mg280   2.126       .  S
O272        C275   1.238       .  S
H273        C275   1.082       .  S
H274        C277   1.079       .  S
O279       Mg286   2.301       .  S
C282       C1169   1.484       .  S
C282        O287   1.276       .  A
O283        C284   1.273       .  A
C284       C1206   1.488       .  S
C289        N290   1.362       .  A
C289        N294   1.351       .  A
C289       C1262   1.479       .  S
N290        C291   1.367       .  A
C291        N292   1.359       .  A
C291        C575   1.468       .  S
N292        C293   1.354       .  A
C293        N294   1.350       .  A
C293       C1094   1.470       .  S
C295        N296   1.358       .  A
C295        N300   1.355       .  A
C295       C1197   1.466       .  S
N296        C297   1.360       .  A
C297        N298   1.361       .  A
N298        C299   1.357       .  A
C299        N300   1.357       .  A
C299       C1066   1.490       .  S
C301        N302   1.358       .  A
C301        N306   1.356       .  A
C301       C1141   1.471       .  S
N302        C303   1.360       .  A
C303        N304   1.357       .  A
N304        C305   1.354       .  A
C305        N306   1.357       .  A
C305       C1029   1.485       .  S
O307       Mg309   2.123       .  S
O307       Mg315   2.146       .  S
O307        C342   1.236       .  S
C308        O321   1.238   1_556  S
C308        O345   1.272       .  A
C308        H347   1.081       .  S
Mg309       O338   2.148       .  S
Mg309       O353   2.311       .  S
Mg309       O349   2.248       .  S
Mg309       O320   2.303       .  S
O310       Mg352   2.150   1_655  S
O310       Mg335   2.147   1_556  S
O310        C331   1.236       .  S
O311        C342   1.269   1_655  A
O311       Mg335   2.292       .  S
C312       C1738   1.495       .  S
C312        O314   1.273       .  A
C312        O326   1.278       .  A
O313        C341   1.272       .  A
O313       Mg315   2.303       .  S
O314       Mg346   2.265   1_556  S
Mg315       O321   2.130       .  S
Mg315       O329   2.263       .  S
Mg315       O317   2.304       .  S
C316        C945   1.496       .  S
C316        O354   1.275   1_655  A
C316        O322   1.277       .  A
O317        C324   1.276   1_455  A
H318        C331   1.079   1_554  S
C319        O333   1.238       .  S
C319        O334   1.272       .  A
C319        H344   1.077       .  S
O320        C343   1.271       .  A
O321       Mg335   2.149   1_455  S
O322       Mg352   2.317   1_655  S
C323       C1038   1.476       .  S
C323        O336   1.272       .  A
C323        O328   1.274       .  A
C324        C973   1.496       .  S
C324        O351   1.274       .  A
Mg325       O332   2.139   1_556  S
Mg325       O333   2.148       .  S
Mg325       O326   2.320       .  S
Mg325       O327   2.299       .  S
Mg325       O354   2.284       .  S
O327        C331   1.270   1_455  A
O328       Mg335   2.287   1_556  S
O329        C348   1.271       .  A
O330        C350   1.275       .  A
O330       Mg346   2.309       .  S
O332       Mg346   2.147       .  S
O332        C343   1.237       .  S
O333       Mg352   2.139       .  S
O334       Mg346   2.299   1_556  S
Mg335       O351   2.293       .  S
O336       Mg352   2.255   1_655  S
H337        C342   1.080       .  S
O338       Mg346   2.151       .  S
O338        C341   1.238       .  S
H339        C341   1.081       .  S
H340        C343   1.078       .  S
O345       Mg352   2.300       .  S
C348       C1458   1.490       .  S
C348        O353   1.277       .  A
O349        C350   1.271       .  A
C350       C1010   1.478       .  S
C355        N356   1.358       .  A
C355        N360   1.361       .  A
C355        C982   1.474       .  S
N356        C357   1.358       .  A
C357        N358   1.353       .  A
C357       C1113   1.477       .  S
N358        C359   1.354       .  A
C359        N360   1.362       .  A
C361        N362   1.353       .  A
C361        N366   1.361       .  A
C361       C1001   1.488       .  S
N362        C363   1.351       .  A
C363        N364   1.354       .  A
C363       C1561   1.476       .  S
N364        C365   1.360       .  A
C365        N366   1.364       .  A
C367        N368   1.360       .  A
C367        N372   1.358       .  A
C367        C954   1.482       .  S
N368        C369   1.361       .  A
C369        N370   1.359       .  A
N370        C371   1.356       .  A
C371        N372   1.357       .  A
C371       C1822   1.491       .  S
O373       Mg375   2.141   1_565  S
O373       Mg381   2.144   1_556  S
O373        C408   1.236       .  S
C374        O387   1.237       .  S
C374        O411   1.272       .  A
C374        H413   1.083       .  S
Mg375       O404   2.149   1_556  S
Mg375       O419   2.289   1_545  S
Mg375       O415   2.262       .  S
Mg375       O386   2.287       .  S
O376       Mg418   2.149       .  S
O376       Mg401   2.129   1_545  S
O376        C397   1.237       .  S
O377        C408   1.270   1_554  A
O377       Mg401   2.300       .  S
C378       C1057   1.489       .  S
C378        O380   1.274       .  A
C378        O392   1.273       .  A
O379        C407   1.272       .  A
O379       Mg381   2.304       .  S
O380       Mg412   2.273       .  S
Mg381       O387   2.139       .  S
Mg381       O395   2.264   1_554  S
Mg381       O383   2.311   1_554  S
C382        C917   1.480       .  S
C382        O420   1.270       .  A
C382        O388   1.274       .  A
O383        C390   1.277   1_556  A
H384        C397   1.080       .  S
C385        O399   1.236       .  S
C385        O400   1.270       .  A
C385        H410   1.083       .  S
O386        C409   1.268   1_556  A
O387       Mg401   2.151       .  S
O388       Mg418   2.301       .  S
C389       C1673   1.482       .  S
C389        O402   1.271       .  A
C389        O394   1.275       .  A
C390        C842   1.490   1_554  S
C390        O417   1.271       .  A
Mg391       O398   2.117       .  S
Mg391       O399   2.145       .  S
Mg391       O392   2.285       .  S
Mg391       O393   2.295       .  S
Mg391       O420   2.241       .  S
O393        C397   1.270       .  A
O394       Mg401   2.291       .  S
O395        C414   1.273       .  A
O396        C416   1.276   1_554  A
O396       Mg412   2.303       .  S
O398       Mg412   2.149       .  S
O398        C409   1.236       .  S
O399       Mg418   2.128       .  S
O400       Mg412   2.293       .  S
Mg401       O417   2.265       .  S
O402       Mg418   2.254   1_565  S
H403        C408   1.076   1_545  S
O404       Mg412   2.140       .  S
O404        C407   1.237   1_545  S
H405        C407   1.081       .  S
H406        C409   1.079       .  S
O411       Mg418   2.301   1_565  S
C414        C870   1.477       .  S
C414        O419   1.273       .  A
O415        C416   1.272       .  A
C416        C898   1.488       .  S
C421        N422   1.359       .  A
C421        N426   1.356       .  A
C421        C889   1.471       .  S
N422        C423   1.362       .  A
C423        N424   1.357       .  A
N424        C425   1.357       .  A
C425        N426   1.355       .  A
C425        C805   1.486       .  S
C427        N428   1.351       .  A
C427        N432   1.355       .  A
C427        C926   1.464       .  S
N428        C429   1.352       .  A
C429        N430   1.360       .  A
C429       C1178   1.486       .  S
N430        C431   1.363       .  A
C431        N432   1.361       .  A
C433        N434   1.359       .  A
C433        N438   1.353       .  A
C433        C833   1.469       .  S
N434        C435   1.362       .  A
C435        N436   1.359       .  A
N436        C437   1.356       .  A
C437        N438   1.355       .  A
C437       C1766   1.486       .  S
O439       Mg441   2.138       .  S
O439       Mg447   2.154       .  S
O439        C474   1.236       .  S
C440        O453   1.237       .  S
C440        O477   1.271       .  A
C440        H479   1.081       .  S
Mg441       O470   2.148       .  S
Mg441       O485   2.282       .  S
Mg441       O481   2.284       .  S
Mg441       O452   2.294       .  S
O442       Mg484   2.141       .  S
O442       Mg467   2.125       .  S
O442        C463   1.235       .  S
O443        C474   1.270       .  A
O443       Mg467   2.301       .  S
C444       C1085   1.477       .  S
C444        O446   1.270       .  A
C444        O458   1.273       .  A
O445        C473   1.270       .  A
O445       Mg447   2.294       .  S
O446       Mg478   2.229       .  S
Mg447       O453   2.154       .  S
Mg447       O461   2.270       .  S
Mg447       O449   2.296       .  S
C448        C702   1.492       .  S
C448        O486   1.274       .  A
C448        O454   1.274       .  A
O449        C456   1.273       .  A
H450        C463   1.078       .  S
C451        O465   1.237       .  S
C451        O466   1.271       .  A
C451        H476   1.081       .  S
O452        C475   1.268       .  A
O453       Mg467   2.153       .  S
O454       Mg484   2.306       .  S
C455        C721   1.489       .  S
C455        O468   1.270       .  A
C455        O460   1.277       .  A
C456        C749   1.483       .  S
C456        O483   1.272       .  A
Mg457       O464   2.137       .  S
Mg457       O465   2.150       .  S
Mg457       O458   2.289       .  S
Mg457       O459   2.292       .  S
Mg457       O486   2.266       .  S
O459        C463   1.269       .  A
O460       Mg467   2.324       .  S
O461        C480   1.273       .  A
O462        C482   1.275       .  A
O462       Mg478   2.300       .  S
O464       Mg478   2.148       .  S
O464        C475   1.235       .  S
O465       Mg484   2.127       .  S
O466       Mg478   2.295       .  S
Mg467       O483   2.245       .  S
O468       Mg484   2.235       .  S
H469        C474   1.080       .  S
O470       Mg478   2.122       .  S
O470        C473   1.237       .  S
H471        C473   1.081       .  S
H472        C475   1.083       .  S
O477       Mg484   2.304       .  S
C480       C1486   1.483       .  S
C480        O485   1.274       .  A
O481        C482   1.274       .  A
C482        C786   1.489       .  S
C487        N488   1.354       .  A
C487        N492   1.360       .  A
C487        C758   1.475       .  S
N488        C489   1.351       .  A
C489        N490   1.356       .  A
C489        C674   1.480       .  S
N490        C491   1.360       .  A
C491        N492   1.363       .  A
C493        N494   1.353       .  A
C493        N498   1.361       .  A
C493        C693   1.470       .  S
N494        C495   1.354       .  A
C495        N496   1.355       .  A
C495       C1225   1.475       .  S
N496        C497   1.358       .  A
C497        N498   1.364       .  A
C499        N500   1.354       .  A
C499        N504   1.358       .  A
C499        C777   1.472       .  S
N500        C501   1.356       .  A
C501        N502   1.360       .  A
C501       C1617   1.487       .  S
N502        C503   1.361       .  A
C503        N504   1.362       .  A
O505       Mg507   2.134       .  S
O505       Mg513   2.146       .  S
O505        C540   1.235       .  S
C506        O519   1.238       .  S
C506        O543   1.272       .  A
C506        H545   1.083       .  S
Mg507       O536   2.149       .  S
Mg507       O551   2.301       .  S
Mg507       O547   2.271       .  S
Mg507       O518   2.294       .  S
O508       Mg550   2.146       .  S
O508       Mg533   2.136       .  S
O508        C529   1.237       .  S
O509        C540   1.269       .  A
O509       Mg533   2.296       .  S
C510        C665   1.490       .  S
C510        O512   1.272       .  A
C510        O524   1.277       .  A
O511        C539   1.272       .  A
O511       Mg513   2.300       .  S
O512       Mg544   2.262   1_565  S
Mg513       O519   2.144       .  S
Mg513       O527   2.265       .  S
Mg513       O515   2.300       .  S
C514        C646   1.487       .  S
C514        O552   1.274       .  A
C514        O520   1.275   1_565  A
O515        C522   1.275       .  A
H516        C529   1.078       .  S
C517        O531   1.238       .  S
C517        O532   1.272       .  A
C517        H542   1.081       .  S
O518        C541   1.270   1_545  A
O519       Mg533   2.156       .  S
O520       Mg550   2.308       .  S
C521       C1281   1.482       .  S
C521        O534   1.270       .  A
C521        O526   1.276       .  A
C522        C609   1.488       .  S
C522        O549   1.273       .  A
Mg523       O530   2.129   1_565  S
Mg523       O531   2.146   1_565  S
Mg523       O524   2.304       .  S
Mg523       O525   2.300   1_565  S
Mg523       O552   2.270       .  S
O525        C529   1.271       .  A
O526       Mg533   2.302       .  S
O527        C546   1.272       .  A
O528        C548   1.276   1_565  A
O528       Mg544   2.307   1_565  S
O530       Mg544   2.146       .  S
O530        C541   1.236   1_545  S
O531       Mg550   2.137       .  S
O532       Mg544   2.299       .  S
Mg533       O549   2.277       .  S
O534       Mg550   2.252       .  S
H535        C540   1.080       .  S
O536       Mg544   2.137       .  S
O536        C539   1.238       .  S
H537        C539   1.080       .  S
H538        C541   1.077       .  S
O543       Mg550   2.303       .  S
C546        C814   1.481       .  S
C546        O551   1.276       .  A
O547        C548   1.273       .  A
C548        C590   1.493   1_545  S
C553        N554   1.356       .  A
C553        N558   1.364       .  A
C553        C637   1.492       .  S
N554        C555   1.353       .  A
C555        N556   1.356       .  A
C555        C730   1.479       .  S
N556        C557   1.359       .  A
C557        N558   1.366       .  A
C559        N560   1.361       .  A
C559        N564   1.362       .  A
C559        C618   1.476       .  S
N560        C561   1.359       .  A
C561        N562   1.357       .  A
C561       C1374   1.489       .  S
N562        C563   1.356       .  A
C563        N564   1.361       .  A
C563        C571   1.470       .  S
C565        N566   1.358       .  A
C565        N570   1.359       .  A
C565        C581   1.470       .  S
N566        C567   1.358       .  A
C567        N568   1.355       .  A
C567        C861   1.485       .  S
N568        C569   1.357       .  A
C569        N570   1.360       .  A
C571        N572   1.358       .  A
C571        N576   1.359       .  A
N572        C573   1.356       .  A
C573        N574   1.357       .  A
N574        C575   1.356       .  A
C575        N576   1.362       .  A
C577        H587   1.086       .  S
C577        C578   1.401       .  A
C577        C582   1.398       .  A
C578        C583   1.477       .  S
C578        C579   1.409       .  A
C579        C580   1.403       .  A
C579        N584   1.429       .  S
C580        H585   1.086       .  S
C580        C581   1.402       .  A
C581        C582   1.408       .  A
C582        N586   1.429       .  S
C583        C588   1.404       .  A
C583        C592   1.400       .  A
N584        O599   1.262       .  A
N584        O600   1.262       .  A
N586        O597   1.262       .  A
N586        O598   1.262       .  A
C588        C589   1.401       .  A
C588        N593   1.429       .  S
C589        H594   1.085       .  S
C589        C590   1.410       .  A
C590        C591   1.418       .  A
C591        C592   1.400       .  A
C591        N595   1.429   1_565  S
C592        H596   1.086       .  S
N593        O603   1.262       .  A
N593        O604   1.262       .  A
N595        O601   1.262       .  A
N595        O602   1.262       .  A
C605        H615   1.086       .  S
C605        C606   1.401       .  A
C605        C610   1.402       .  A
C606        C611   1.479       .  S
C606        C607   1.407       .  A
C607        C608   1.399       .  A
C607        N612   1.429       .  S
C608        H613   1.086       .  S
C608        C609   1.408       .  A
C609        C610   1.415       .  A
C610        N614   1.429       .  S
C611        C616   1.408       .  A
C611        C620   1.400       .  A
N612        O627   1.262       .  A
N612        O628   1.262       .  A
N614        O625   1.262       .  A
N614        O626   1.262       .  A
C616        C617   1.404       .  A
C616        N621   1.428       .  S
C617        H622   1.086       .  S
C617        C618   1.405       .  A
C618        C619   1.410       .  A
C619        C620   1.398       .  A
C619        N623   1.429       .  S
C620        H624   1.086       .  S
N621        O631   1.262       .  A
N621        O632   1.262       .  A
N623        O629   1.262       .  A
N623        O630   1.262       .  A
C633        H643   1.085       .  S
C633        C634   1.403       .  A
C633        C638   1.408       .  A
C634        C639   1.481       .  S
C634        C635   1.406       .  A
C635        C636   1.395       .  A
C635        N640   1.430       .  S
C636        H641   1.085       .  S
C636        C637   1.408       .  A
C637        C638   1.416       .  A
C638        N642   1.428       .  S
C639        C644   1.408       .  A
C639        C648   1.400       .  A
N640        O655   1.262       .  A
N640        O656   1.262       .  A
N642        O653   1.262       .  A
N642        O654   1.262       .  A
C644        C645   1.400       .  A
C644        N649   1.430       .  S
C645        H650   1.085       .  S
C645        C646   1.405       .  A
C646        C647   1.417       .  A
C647        C648   1.403       .  A
C647        N651   1.429   1_565  S
C648        H652   1.085       .  S
N649        O659   1.262       .  A
N649        O660   1.262       .  A
N651        O657   1.262       .  A
N651        O658   1.262       .  A
C661        H671   1.086       .  S
C661        C662   1.398       .  A
C661        C666   1.401       .  A
C662        C667   1.473       .  S
C662        C663   1.404       .  A
C663        C664   1.398       .  A
C663        N668   1.429       .  S
C664        H669   1.085       .  S
C664        C665   1.409       .  A
C665        C666   1.419       .  A
C666        N670   1.429       .  S
C667        C672   1.406       .  A
C667        C676   1.398       .  A
N668        O683   1.262       .  A
N668        O684   1.262       .  A
N670        O681   1.262       .  A
N670        O682   1.262       .  A
C672        C673   1.401       .  A
C672        N677   1.428       .  S
C673        H678   1.085       .  S
C673        C674   1.406       .  A
C674        C675   1.415       .  A
C675        C676   1.396       .  A
C675        N679   1.430       .  S
C676        H680   1.086       .  S
N677        O687   1.262       .  A
N677        O688   1.262       .  A
N679        O685   1.262       .  A
N679        O686   1.262       .  A
C689        H699   1.086       .  S
C689        C690   1.404       .  A
C689        C694   1.400       .  A
C690        C695   1.488       .  S
C690        C691   1.413       .  A
C691        C692   1.402       .  A
C691        N696   1.429       .  S
C692        H697   1.086       .  S
C692        C693   1.400       .  A
C693        C694   1.408       .  A
C694        N698   1.429       .  S
C695        C700   1.411       .  A
C695        C704   1.403       .  A
N696        O711   1.262       .  A
N696        O712   1.262       .  A
N698        O709   1.262       .  A
N698        O710   1.262       .  A
C700        C701   1.398       .  A
C700        N705   1.430       .  S
C701        H706   1.086       .  S
C701        C702   1.406       .  A
C702        C703   1.418       .  A
C703        C704   1.403       .  A
C703        N707   1.429       .  S
C704        H708   1.086       .  S
N705        O715   1.262       .  A
N705        O716   1.262       .  A
N707        O713   1.262       .  A
N707        O714   1.262       .  A
C717        H727   1.086       .  S
C717        C718   1.402       .  A
C717        C722   1.401       .  A
C718        C723   1.477       .  S
C718        C719   1.405       .  A
C719        C720   1.398       .  A
C719        N724   1.431       .  S
C720        H725   1.085       .  S
C720        C721   1.410       .  A
C721        C722   1.416       .  A
C722        N726   1.429       .  S
C723        C728   1.409       .  A
C723        C732   1.401       .  A
N724        O739   1.262       .  A
N724        O740   1.262       .  A
N726        O737   1.262       .  A
N726        O738   1.262       .  A
C728        C729   1.399       .  A
C728        N733   1.430       .  S
C729        H734   1.086       .  S
C729        C730   1.405       .  A
C730        C731   1.413       .  A
C731        C732   1.400       .  A
C731        N735   1.429       .  S
C732        H736   1.085       .  S
N733        O743   1.262       .  A
N733        O744   1.262       .  A
N735        O741   1.262       .  A
N735        O742   1.261       .  A
C745        H755   1.086       .  S
C745        C746   1.397       .  A
C745        C750   1.400       .  A
C746        C751   1.472       .  S
C746        C747   1.406       .  A
C747        C748   1.395       .  A
C747        N752   1.431       .  S
C748        H753   1.085       .  S
C748        C749   1.406       .  A
C749        C750   1.418       .  A
C750        N754   1.428       .  S
C751        C756   1.406       .  A
C751        C760   1.401       .  A
N752        O767   1.262       .  A
N752        O768   1.262       .  A
N754        O765   1.262       .  A
N754        O766   1.261       .  A
C756        C757   1.392       .  A
C756        N761   1.431       .  S
C757        H762   1.086       .  S
C757        C758   1.403       .  A
C758        C759   1.412       .  A
C759        C760   1.404       .  A
C759        N763   1.428       .  S
C760        H764   1.085       .  S
N761        O771   1.262       .  A
N761        O772   1.262       .  A
N763        O769   1.262       .  A
N763        O770   1.262       .  A
C773        H783   1.086       .  S
C773        C774   1.400       .  A
C773        C778   1.396       .  A
C774        C779   1.482       .  S
C774        C775   1.411       .  A
C775        C776   1.406       .  A
C775        N780   1.429       .  S
C776        H781   1.086       .  S
C776        C777   1.404       .  A
C777        C778   1.409       .  A
C778        N782   1.431       .  S
C779        C784   1.408       .  A
C779        C788   1.402       .  A
N780        O795   1.262       .  A
N780        O796   1.262       .  A
N782        O793   1.262       .  A
N782        O794   1.262       .  A
C784        C785   1.399       .  A
C784        N789   1.429       .  S
C785        H790   1.086       .  S
C785        C786   1.407       .  A
C786        C787   1.415       .  A
C787        C788   1.404       .  A
C787        N791   1.429       .  S
C788        H792   1.086       .  S
N789        O799   1.262       .  A
N789        O800   1.262       .  A
N791        O797   1.262       .  A
N791        O798   1.262       .  A
C801        H811   1.086       .  S
C801        C802   1.399       .  A
C801        C806   1.398       .  A
C802        C807   1.475       .  S
C802        C803   1.405       .  A
C803        C804   1.400       .  A
C803        N808   1.428       .  S
C804        H809   1.085       .  S
C804        C805   1.408       .  A
C805        C806   1.417       .  A
C806        N810   1.429       .  S
C807        C812   1.406       .  A
C807        C816   1.400       .  A
N808        O823   1.262       .  A
N808        O824   1.262       .  A
N810        O821   1.262       .  A
N810        O822   1.262       .  A
C812        C813   1.399       .  A
C812        N817   1.429       .  S
C813        H818   1.085       .  S
C813        C814   1.406       .  A
C814        C815   1.414       .  A
C815        C816   1.400       .  A
C815        N819   1.429       .  S
C816        H820   1.086       .  S
N817        O827   1.262       .  A
N817        O828   1.262       .  A
N819        O825   1.262       .  A
N819        O826   1.262       .  A
C829        H839   1.086       .  S
C829        C830   1.401       .  A
C829        C834   1.396       .  A
C830        C835   1.479       .  S
C830        C831   1.410       .  A
C831        C832   1.404       .  A
C831        N836   1.428       .  S
C832        H837   1.086       .  S
C832        C833   1.403       .  A
C833        C834   1.408       .  A
C834        N838   1.429       .  S
C835        C840   1.406       .  A
C835        C844   1.401       .  A
N836        O851   1.262       .  A
N836        O852   1.262       .  A
N838        O849   1.262       .  A
N838        O850   1.262       .  A
C840        C841   1.398       .  A
C840        N845   1.429       .  S
C841        H846   1.085       .  S
C841        C842   1.407       .  A
C842        C843   1.418       .  A
C843        C844   1.403       .  A
C843        N847   1.430   1_556  S
C844        H848   1.086       .  S
N845        O855   1.262       .  A
N845        O856   1.262       .  A
N847        O853   1.262       .  A
N847        O854   1.262       .  A
C857        H867   1.086       .  S
C857        C858   1.399       .  A
C857        C862   1.400       .  A
C858        C863   1.475       .  S
C858        C859   1.405       .  A
C859        C860   1.398       .  A
C859        N864   1.429       .  S
C860        H865   1.085       .  S
C860        C861   1.407       .  A
C861        C862   1.417       .  A
C862        N866   1.429       .  S
C863        C868   1.406       .  A
C863        C872   1.400       .  A
N864        O879   1.262       .  A
N864        O880   1.262       .  A
N866        O877   1.262       .  A
N866        O878   1.262       .  A
C868        C869   1.398       .  A
C868        N873   1.429       .  S
C869        H874   1.086       .  S
C869        C870   1.405       .  A
C870        C871   1.413       .  A
C871        C872   1.399       .  A
C871        N875   1.430       .  S
C872        H876   1.086       .  S
N873        O883   1.262       .  A
N873        O884   1.262       .  A
N875        O881   1.262       .  A
N875        O882   1.262       .  A
C885        H895   1.087       .  S
C885        C886   1.407       .  A
C885        C890   1.403       .  A
C886        C891   1.489       .  S
C886        C887   1.412       .  A
C887        C888   1.398       .  A
C887        N892   1.431       .  S
C888        H893   1.087       .  S
C888        C889   1.400       .  A
C889        C890   1.408       .  A
C890        N894   1.429       .  S
C891        C896   1.410       .  A
C891        C900   1.404       .  A
N892        O907   1.262       .  A
N892        O908   1.262       .  A
N894        O905   1.262       .  A
N894        O906   1.262       .  A
C896        C897   1.402       .  A
C896        N901   1.430       .  S
C897        H902   1.086       .  S
C897        C898   1.408       .  A
C898        C899   1.415       .  A
C899        C900   1.397       .  A
C899        N903   1.430       .  S
C900        H904   1.087       .  S
N901        O911   1.262       .  A
N901        O912   1.262       .  A
N903        O909   1.262       .  A
N903        O910   1.262       .  A
C913        H923   1.086       .  S
C913        C914   1.400       .  A
C913        C918   1.400       .  A
C914        C919   1.474       .  S
C914        C915   1.408       .  A
C915        C916   1.395       .  A
C915        N920   1.431       .  S
C916        H921   1.086       .  S
C916        C917   1.406       .  A
C917        C918   1.414       .  A
C918        N922   1.428       .  S
C919        C924   1.409       .  A
C919        C928   1.400       .  A
N920        O935   1.262       .  A
N920        O936   1.262       .  A
N922        O933   1.262       .  A
N922        O934   1.262       .  A
C924        C925   1.401       .  A
C924        N929   1.429       .  S
C925        H930   1.086       .  S
C925        C926   1.401       .  A
C926        C927   1.408       .  A
C927        C928   1.394       .  A
C927        N931   1.430       .  S
C928        H932   1.086       .  S
N929        O939   1.262       .  A
N929        O940   1.262       .  A
N931        O937   1.262       .  A
N931        O938   1.262       .  A
C941        H951   1.086       .  S
C941        C942   1.396       .  A
C941        C946   1.397       .  A
C942        C947   1.478       .  S
C942        C943   1.405       .  A
C943        C944   1.405       .  A
C943        N948   1.428       .  S
C944        H949   1.085       .  S
C944        C945   1.412       .  A
C945        C946   1.417       .  A
C946        N950   1.424   1_655  S
C947        C952   1.408       .  A
C947        C956   1.399       .  A
N948        O963   1.262       .  A
N948        O964   1.262       .  A
N950        O961   1.262       .  A
N950        O962   1.262       .  A
C952        C953   1.406       .  A
C952        N957   1.428       .  S
C953        H958   1.085       .  S
C953        C954   1.407       .  A
C954        C955   1.413       .  A
C955        C956   1.395       .  A
C955        N959   1.430       .  S
C956        H960   1.086       .  S
N957        O967   1.262       .  A
N957        O968   1.262       .  A
N959        O965   1.262       .  A
N959        O966   1.262       .  A
C969        H979   1.086       .  S
C969        C970   1.401       .  A
C969        C974   1.404       .  A
C970        C975   1.483       .  S
C970        C971   1.405       .  A
C971        C972   1.401       .  A
C971        N976   1.428       .  S
C972        H977   1.085       .  S
C972        C973   1.411       .  A
C973        C974   1.419       .  A
C974        N978   1.429       .  S
C975        C980   1.409       .  A
C975        C984   1.402       .  A
N976        O991   1.262       .  A
N976        O992   1.262       .  A
N978        O989   1.262       .  A
N978        O990   1.262       .  A
C980        C981   1.405       .  A
C980        N985   1.428       .  S
C981        H986   1.086       .  S
C981        C982   1.403       .  A
C982        C983   1.408       .  A
C983        C984   1.399       .  A
C983        N987   1.429       .  S
C984        H988   1.086       .  S
N985        O995   1.262       .  A
N985        O996   1.262       .  A
N987        O993   1.262       .  A
N987        O994   1.262       .  A
C997       H1007   1.085       .  S
C997        C998   1.403       .  A
C997       C1002   1.405       .  A
C998       C1003   1.479       .  S
C998        C999   1.408       .  A
C999       C1000   1.394       .  A
C999       N1004   1.433       .  S
C1000      H1005   1.085       .  S
C1000      C1001   1.408       .  A
C1001      C1002   1.414       .  A
C1002      N1006   1.428       .  S
C1003      C1008   1.411       .  A
C1003      C1012   1.401       .  A
N1004      O1019   1.262       .  A
N1004      O1020   1.262       .  A
N1006      O1017   1.262       .  A
N1006      O1018   1.262       .  A
C1008      C1009   1.398       .  A
C1008      N1013   1.432       .  S
C1009      H1014   1.086       .  S
C1009      C1010   1.403       .  A
C1010      C1011   1.413       .  A
C1011      C1012   1.401       .  A
C1011      N1015   1.429       .  S
C1012      H1016   1.085       .  S
N1013      O1023   1.262       .  A
N1013      O1024   1.262       .  A
N1015      O1021   1.262       .  A
N1015      O1022   1.262       .  A
C1025      H1035   1.087       .  S
C1025      C1026   1.401       .  A
C1025      C1030   1.401       .  A
C1026      C1031   1.476       .  S
C1026      C1027   1.407       .  A
C1027      C1028   1.393       .  A
C1027      N1032   1.430       .  S
C1028      H1033   1.086       .  S
C1028      C1029   1.405       .  A
C1029      C1030   1.418       .  A
C1030      N1034   1.429       .  S
C1031      C1036   1.408       .  A
C1031      C1040   1.401       .  A
N1032      O1047   1.262       .  A
N1032      O1048   1.262       .  A
N1034      O1045   1.262       .  A
N1034      O1046   1.262       .  A
C1036      C1037   1.398       .  A
C1036      N1041   1.429       .  S
C1037      H1042   1.086       .  S
C1037      C1038   1.405       .  A
C1038      C1039   1.412       .  A
C1039      C1040   1.396       .  A
C1039      N1043   1.429       .  S
C1040      H1044   1.086       .  S
N1041      O1051   1.262       .  A
N1041      O1052   1.262       .  A
N1043      O1049   1.262       .  A
N1043      O1050   1.261       .  A
C1053      H1063   1.086       .  S
C1053      C1054   1.402       .  A
C1053      C1058   1.399       .  A
C1054      C1059   1.487       .  S
C1054      C1055   1.410       .  A
C1055      C1056   1.401       .  A
C1055      N1060   1.429       .  S
C1056      H1061   1.086       .  S
C1056      C1057   1.407       .  A
C1057      C1058   1.418       .  A
C1058      N1062   1.430       .  S
C1059      C1064   1.410       .  A
C1059      C1068   1.404       .  A
N1060      O1075   1.262       .  A
N1060      O1076   1.262       .  A
N1062      O1073   1.262       .  A
N1062      O1074   1.262       .  A
C1064      C1065   1.396       .  A
C1064      N1069   1.430       .  S
C1065      H1070   1.086       .  S
C1065      C1066   1.406       .  A
C1066      C1067   1.417       .  A
C1067      C1068   1.404       .  A
C1067      N1071   1.429       .  S
C1068      H1072   1.086       .  S
N1069      O1079   1.262       .  A
N1069      O1080   1.262       .  A
N1071      O1077   1.262       .  A
N1071      O1078   1.262       .  A
C1081      H1091   1.086       .  S
C1081      C1082   1.399       .  A
C1081      C1086   1.397       .  A
C1082      C1087   1.465       .  S
C1082      C1083   1.403       .  A
C1083      C1084   1.394       .  A
C1083      N1088   1.430       .  S
C1084      H1089   1.085       .  S
C1084      C1085   1.407       .  A
C1085      C1086   1.414       .  A
C1086      N1090   1.429       .  S
C1087      C1092   1.405       .  A
C1087      C1096   1.400       .  A
N1088      O1103   1.262       .  A
N1088      O1104   1.262       .  A
N1090      O1101   1.262       .  A
N1090      O1102   1.262       .  A
C1092      C1093   1.392       .  A
C1092      N1097   1.430       .  S
C1093      H1098   1.086       .  S
C1093      C1094   1.404       .  A
C1094      C1095   1.412       .  A
C1095      C1096   1.399       .  A
C1095      N1099   1.429       .  S
C1096      H1100   1.086       .  S
N1097      O1107   1.262       .  A
N1097      O1108   1.262       .  A
N1099      O1105   1.262       .  A
N1099      O1106   1.262       .  A
C1109      H1119   1.086       .  S
C1109      C1110   1.399       .  A
C1109      C1114   1.397       .  A
C1110      C1115   1.474       .  S
C1110      C1111   1.409       .  A
C1111      C1112   1.398       .  A
C1111      N1116   1.430       .  S
C1112      H1117   1.085       .  S
C1112      C1113   1.403       .  A
C1113      C1114   1.415       .  A
C1114      N1118   1.429       .  S
C1115      C1120   1.407       .  A
C1115      C1124   1.400       .  A
N1116      O1131   1.262       .  A
N1116      O1132   1.262       .  A
N1118      O1129   1.261       .  A
N1118      O1130   1.262       .  A
C1120      C1121   1.398       .  A
C1120      N1125   1.432       .  S
C1121      H1126   1.085       .  S
C1121      C1122   1.407       .  A
C1122      C1123   1.415       .  A
C1123      C1124   1.398       .  A
C1123      N1127   1.430       .  S
C1124      H1128   1.086       .  S
N1125      O1135   1.262       .  A
N1125      O1136   1.262       .  A
N1127      O1133   1.262       .  A
N1127      O1134   1.262       .  A
C1137      H1147   1.086       .  S
C1137      C1138   1.403       .  A
C1137      C1142   1.397       .  A
C1138      C1143   1.484       .  S
C1138      C1139   1.412       .  A
C1139      C1140   1.402       .  A
C1139      N1144   1.430       .  S
C1140      H1145   1.086       .  S
C1140      C1141   1.401       .  A
C1141      C1142   1.408       .  A
C1142      N1146   1.430       .  S
C1143      C1148   1.409       .  A
C1143      C1152   1.403       .  A
N1144      O1159   1.262       .  A
N1144      O1160   1.262       .  A
N1146      O1157   1.262       .  A
N1146      O1158   1.262       .  A
C1148      C1149   1.396       .  A
C1148      N1153   1.431       .  S
C1149      H1154   1.086       .  S
C1149      C1150   1.406       .  A
C1150      C1151   1.415       .  A
C1151      C1152   1.404       .  A
C1151      N1155   1.428       .  S
C1152      H1156   1.086       .  S
N1153      O1163   1.262       .  A
N1153      O1164   1.262       .  A
N1155      O1161   1.262       .  A
N1155      O1162   1.262       .  A
C1165      H1175   1.086       .  S
C1165      C1166   1.400       .  A
C1165      C1170   1.401       .  A
C1166      C1171   1.479       .  S
C1166      C1167   1.409       .  A
C1167      C1168   1.395       .  A
C1167      N1172   1.430       .  S
C1168      H1173   1.086       .  S
C1168      C1169   1.405       .  A
C1169      C1170   1.417       .  A
C1170      N1174   1.429       .  S
C1171      C1176   1.409       .  A
C1171      C1180   1.398       .  A
N1172      O1187   1.262       .  A
N1172      O1188   1.262       .  A
N1174      O1185   1.262       .  A
N1174      O1186   1.262       .  A
C1176      C1177   1.402       .  A
C1176      N1181   1.428       .  S
C1177      H1182   1.086       .  S
C1177      C1178   1.407       .  A
C1178      C1179   1.418       .  A
C1179      C1180   1.394       .  A
C1179      N1183   1.431       .  S
C1180      H1184   1.087       .  S
N1181      O1191   1.262       .  A
N1181      O1192   1.262       .  A
N1183      O1189   1.262       .  A
N1183      O1190   1.262       .  A
C1193      H1203   1.087       .  S
C1193      C1194   1.406       .  A
C1193      C1198   1.400       .  A
C1194      C1199   1.488       .  S
C1194      C1195   1.414       .  A
C1195      C1196   1.401       .  A
C1195      N1200   1.429       .  S
C1196      H1201   1.087       .  S
C1196      C1197   1.399       .  A
C1197      C1198   1.406       .  A
C1198      N1202   1.429       .  S
C1199      C1204   1.410       .  A
C1199      C1208   1.405       .  A
N1200      O1215   1.262       .  A
N1200      O1216   1.262       .  A
N1202      O1213   1.262       .  A
N1202      O1214   1.262       .  A
C1204      C1205   1.400       .  A
C1204      N1209   1.430       .  S
C1205      H1210   1.087       .  S
C1205      C1206   1.407       .  A
C1206      C1207   1.414       .  A
C1207      C1208   1.401       .  A
C1207      N1211   1.429       .  S
C1208      H1212   1.087       .  S
N1209      O1219   1.262       .  A
N1209      O1220   1.262       .  A
N1211      O1217   1.262       .  A
N1211      O1218   1.262       .  A
C1221      H1231   1.086       .  S
C1221      C1222   1.398       .  A
C1221      C1226   1.394       .  A
C1222      C1227   1.471       .  S
C1222      C1223   1.407       .  A
C1223      C1224   1.399       .  A
C1223      N1228   1.429       .  S
C1224      H1229   1.086       .  S
C1224      C1225   1.405       .  A
C1225      C1226   1.412       .  A
C1226      N1230   1.430       .  S
C1227      C1232   1.405       .  A
C1227      C1236   1.398       .  A
N1228      O1243   1.262       .  A
N1228      O1244   1.262       .  A
N1230      O1241   1.262       .  A
N1230      O1242   1.262       .  A
C1232      C1233   1.394       .  A
C1232      N1237   1.429       .  S
C1233      H1238   1.085       .  S
C1233      C1234   1.406       .  A
C1234      C1235   1.418       .  A
C1235      C1236   1.400       .  A
C1235      N1239   1.429       .  S
C1236      H1240   1.086       .  S
N1237      O1247   1.262       .  A
N1237      O1248   1.261       .  A
N1239      O1245   1.262       .  A
N1239      O1246   1.262       .  A
C1249      H1259   1.086       .  S
C1249      C1250   1.404       .  A
C1249      C1254   1.405       .  A
C1250      C1255   1.492       .  S
C1250      C1251   1.414       .  A
C1251      C1252   1.398       .  A
C1251      N1256   1.432       .  S
C1252      H1257   1.086       .  S
C1252      C1253   1.403       .  A
C1253      C1254   1.416       .  A
C1254      N1258   1.428       .  S
C1255      C1260   1.415       .  A
C1255      C1264   1.402       .  A
N1256      O1271   1.262       .  A
N1256      O1272   1.262       .  A
N1258      O1269   1.262   1_556  A
N1258      O1270   1.262   1_556  A
C1260      C1261   1.407       .  A
C1260      N1265   1.429       .  S
C1261      H1266   1.086       .  S
C1261      C1262   1.403       .  A
C1262      C1263   1.413       .  A
C1263      C1264   1.395       .  A
C1263      N1267   1.430       .  S
C1264      H1268   1.086       .  S
N1265      O1275   1.262       .  A
N1265      O1276   1.262       .  A
N1267      O1273   1.262       .  A
N1267      O1274   1.262       .  A
C1277      H1287   1.086       .  S
C1277      C1278   1.402       .  A
C1277      C1282   1.401       .  A
C1278      C1283   1.480       .  S
C1278      C1279   1.408       .  A
C1279      C1280   1.396       .  A
C1279      N1284   1.429       .  S
C1280      H1285   1.086       .  S
C1280      C1281   1.405       .  A
C1281      C1282   1.415       .  A
C1282      N1286   1.429       .  S
C1283      C1288   1.408       .  A
C1283      C1292   1.401       .  A
N1284      O1299   1.262       .  A
N1284      O1300   1.262       .  A
N1286      O1297   1.262       .  A
N1286      O1298   1.262       .  A
C1288      C1289   1.401       .  A
C1288      N1293   1.429       .  S
C1289      H1294   1.086       .  S
C1289      C1290   1.407       .  A
C1290      C1291   1.416       .  A
C1291      C1292   1.398       .  A
C1291      N1295   1.430       .  S
C1292      H1296   1.086       .  S
N1293      O1303   1.262       .  A
N1293      O1304   1.262       .  A
N1295      O1301   1.262       .  A
N1295      O1302   1.262       .  A
C1305      H1315   1.086       .  S
C1305      C1306   1.403       .  A
C1305      C1310   1.402       .  A
C1306      C1311   1.482       .  S
C1306      C1307   1.409       .  A
C1307      C1308   1.399       .  A
C1307      N1312   1.429       .  S
C1308      H1313   1.086       .  S
C1308      C1309   1.405       .  A
C1309      C1310   1.411       .  A
C1310      N1314   1.426   1_565  S
C1311      C1316   1.412       .  A
C1311      C1320   1.401       .  A
N1312      O1327   1.262       .  A
N1312      O1328   1.262       .  A
N1314      O1325   1.262       .  A
N1314      O1326   1.262       .  A
C1316      C1317   1.404       .  A
C1316      N1321   1.429       .  S
C1317      H1322   1.086       .  S
C1317      C1318   1.402       .  A
C1318      C1319   1.408       .  A
C1319      C1320   1.395       .  A
C1319      N1323   1.429       .  S
C1320      H1324   1.086       .  S
N1321      O1331   1.262       .  A
N1321      O1332   1.262       .  A
N1323      O1329   1.262       .  A
N1323      O1330   1.262       .  A
C1333      H1343   1.086       .  S
C1333      C1334   1.401       .  A
C1333      C1338   1.400       .  A
C1334      C1339   1.473       .  S
C1334      C1335   1.405       .  A
C1335      C1336   1.399       .  A
C1335      N1340   1.429       .  S
C1336      H1341   1.086       .  S
C1336      C1337   1.408       .  A
C1337      C1338   1.412       .  A
C1338      N1342   1.429       .  S
C1339      C1344   1.408       .  A
C1339      C1348   1.398       .  A
N1340      O1355   1.262       .  A
N1340      O1356   1.262       .  A
N1342      O1353   1.262       .  A
N1342      O1354   1.262       .  A
C1344      C1345   1.405       .  A
C1344      N1349   1.429       .  S
C1345      H1350   1.084       .  S
C1345      C1346   1.405       .  A
C1346      C1347   1.410       .  A
C1347      C1348   1.395       .  A
C1347      N1351   1.429       .  S
C1348      H1352   1.085       .  S
N1349      O1359   1.262       .  A
N1349      O1360   1.262       .  A
N1351      O1357   1.262       .  A
N1351      O1358   1.262       .  A
C1361      H1371   1.084       .  S
C1361      C1362   1.399       .  A
C1361      C1366   1.402       .  A
C1362      C1367   1.477       .  S
C1362      C1363   1.404       .  A
C1363      C1364   1.399       .  A
C1363      N1368   1.430       .  S
C1364      H1369   1.084       .  S
C1364      C1365   1.409       .  A
C1365      C1366   1.420       .  A
C1366      N1370   1.429       .  S
C1367      C1372   1.404       .  A
C1367      C1376   1.400       .  A
N1368      O1383   1.262       .  A
N1368      O1384   1.262       .  A
N1370      O1381   1.262       .  A
N1370      O1382   1.262       .  A
C1372      C1373   1.400       .  A
C1372      N1377   1.428       .  S
C1373      H1378   1.085       .  S
C1373      C1374   1.410       .  A
C1374      C1375   1.414       .  A
C1375      C1376   1.400       .  A
C1375      N1379   1.428       .  S
C1376      H1380   1.086       .  S
N1377      O1387   1.262       .  A
N1377      O1388   1.262       .  A
N1379      O1385   1.262       .  A
N1379      O1386   1.262       .  A
C1389      H1399   1.086       .  S
C1389      C1390   1.403       .  A
C1389      C1394   1.399       .  A
C1390      C1395   1.484       .  S
C1390      C1391   1.407       .  A
C1391      C1392   1.401       .  A
C1391      N1396   1.429       .  S
C1392      H1397   1.086       .  S
C1392      C1393   1.409       .  A
C1393      C1394   1.416       .  A
C1394      N1398   1.429       .  S
C1395      C1400   1.411       .  A
C1395      C1404   1.405       .  A
N1396      O1411   1.262       .  A
N1396      O1412   1.262       .  A
N1398      O1409   1.262       .  A
N1398      O1410   1.262       .  A
C1400      C1401   1.400       .  A
C1400      N1405   1.429       .  S
C1401      H1406   1.086       .  S
C1401      C1402   1.400       .  A
C1402      C1403   1.406       .  A
C1403      C1404   1.400       .  A
C1403      N1407   1.429       .  S
C1404      H1408   1.086       .  S
N1405      O1415   1.262       .  A
N1405      O1416   1.262       .  A
N1407      O1413   1.262       .  A
N1407      O1414   1.262       .  A
C1417      H1427   1.086       .  S
C1417      C1418   1.397       .  A
C1417      C1422   1.397       .  A
C1418      C1423   1.469       .  S
C1418      C1419   1.403       .  A
C1419      C1420   1.399       .  A
C1419      N1424   1.429       .  S
C1420      H1425   1.085       .  S
C1420      C1421   1.409       .  A
C1421      C1422   1.418       .  A
C1422      N1426   1.433       .  S
C1423      C1428   1.404       .  A
C1423      C1432   1.397       .  A
N1424      O1439   1.262       .  A
N1424      O1440   1.262       .  A
N1426      O1437   1.262       .  A
N1426      O1438   1.262       .  A
C1428      C1429   1.396       .  A
C1428      N1433   1.428       .  S
C1429      H1434   1.085       .  S
C1429      C1430   1.406       .  A
C1430      C1431   1.420       .  A
C1431      C1432   1.399       .  A
C1431      N1435   1.430       .  S
C1432      H1436   1.086       .  S
N1433      O1443   1.262       .  A
N1433      O1444   1.262       .  A
N1435      O1441   1.262       .  A
N1435      O1442   1.262       .  A
C1445      H1455   1.086       .  S
C1445      C1446   1.398       .  A
C1445      C1450   1.399       .  A
C1446      C1451   1.478       .  S
C1446      C1447   1.407       .  A
C1447      C1448   1.404       .  A
C1447      N1452   1.428       .  S
C1448      H1453   1.085       .  S
C1448      C1449   1.406       .  A
C1449      C1450   1.417       .  A
C1450      N1454   1.433       .  S
C1451      C1456   1.406       .  A
C1451      C1460   1.400       .  A
N1452      O1467   1.262       .  A
N1452      O1468   1.262       .  A
N1454      O1465   1.262       .  A
N1454      O1466   1.262       .  A
C1456      C1457   1.399       .  A
C1456      N1461   1.429       .  S
C1457      H1462   1.085       .  S
C1457      C1458   1.408       .  A
C1458      C1459   1.418       .  A
C1459      C1460   1.402       .  A
C1459      N1463   1.429       .  S
C1460      H1464   1.086       .  S
N1461      O1471   1.262       .  A
N1461      O1472   1.262       .  A
N1463      O1469   1.262       .  A
N1463      O1470   1.262       .  A
C1473      H1483   1.087       .  S
C1473      C1474   1.400       .  A
C1473      C1478   1.396       .  A
C1474      C1479   1.480       .  S
C1474      C1475   1.409       .  A
C1475      C1476   1.399       .  A
C1475      N1480   1.429       .  S
C1476      H1481   1.086       .  S
C1476      C1477   1.406       .  A
C1477      C1478   1.417       .  A
C1478      N1482   1.430       .  S
C1479      C1484   1.409       .  A
C1479      C1488   1.402       .  A
N1480      O1495   1.262       .  A
N1480      O1496   1.262       .  A
N1482      O1493   1.262       .  A
N1482      O1494   1.262       .  A
C1484      C1485   1.395       .  A
C1484      N1489   1.430       .  S
C1485      H1490   1.086       .  S
C1485      C1486   1.406       .  A
C1486      C1487   1.414       .  A
C1487      C1488   1.401       .  A
C1487      N1491   1.429       .  S
C1488      H1492   1.086       .  S
N1489      O1499   1.262       .  A
N1489      O1500   1.262       .  A
N1491      O1497   1.262       .  A
N1491      O1498   1.262       .  A
C1501      H1511   1.087       .  S
C1501      C1502   1.402       .  A
C1501      C1506   1.396       .  A
C1502      C1507   1.478       .  S
C1502      C1503   1.408       .  A
C1503      C1504   1.399       .  A
C1503      N1508   1.430       .  S
C1504      H1509   1.086       .  S
C1504      C1505   1.407       .  A
C1505      C1506   1.414       .  A
C1506      N1510   1.429       .  S
C1507      C1512   1.409       .  A
C1507      C1516   1.400       .  A
N1508      O1523   1.262       .  A
N1508      O1524   1.262       .  A
N1510      O1521   1.262       .  A
N1510      O1522   1.262       .  A
C1512      C1513   1.397       .  A
C1512      N1517   1.430       .  S
C1513      H1518   1.086       .  S
C1513      C1514   1.406       .  A
C1514      C1515   1.416       .  A
C1515      C1516   1.397       .  A
C1515      N1519   1.429       .  S
C1516      H1520   1.086       .  S
N1517      O1527   1.262       .  A
N1517      O1528   1.262       .  A
N1519      O1525   1.261       .  A
N1519      O1526   1.262       .  A
C1529      H1539   1.086       .  S
C1529      C1530   1.405       .  A
C1529      C1534   1.402       .  A
C1530      C1535   1.488       .  S
C1530      C1531   1.414       .  A
C1531      C1532   1.396       .  A
C1531      N1536   1.431       .  S
C1532      H1537   1.087       .  S
C1532      C1533   1.400       .  A
C1533      C1534   1.410       .  A
C1534      N1538   1.429       .  S
C1535      C1540   1.414       .  A
C1535      C1544   1.404       .  A
N1536      O1551   1.262       .  A
N1536      O1552   1.262       .  A
N1538      O1549   1.262       .  A
N1538      O1550   1.262       .  A
C1540      C1541   1.401       .  A
C1540      N1545   1.429       .  S
C1541      H1546   1.086       .  S
C1541      C1542   1.401       .  A
C1542      C1543   1.409       .  A
C1543      C1544   1.398       .  A
C1543      N1547   1.432       .  S
C1544      H1548   1.086       .  S
N1545      O1555   1.262       .  A
N1545      O1556   1.262       .  A
N1547      O1553   1.262       .  A
N1547      O1554   1.262       .  A
C1557      H1567   1.086       .  S
C1557      C1558   1.403       .  A
C1557      C1562   1.404       .  A
C1558      C1563   1.469       .  S
C1558      C1559   1.403       .  A
C1559      C1560   1.390       .  A
C1559      N1564   1.429       .  S
C1560      H1565   1.086       .  S
C1560      C1561   1.405       .  A
C1561      C1562   1.413       .  A
C1562      N1566   1.429       .  S
C1563      C1568   1.405       .  A
C1563      C1572   1.399       .  A
N1564      O1579   1.262       .  A
N1564      O1580   1.262       .  A
N1566      O1577   1.262       .  A
N1566      O1578   1.262       .  A
C1568      C1569   1.396       .  A
C1568      N1573   1.429       .  S
C1569      H1574   1.086       .  S
C1569      C1570   1.406       .  A
C1570      C1571   1.415       .  A
C1571      C1572   1.399       .  A
C1571      N1575   1.430       .  S
C1572      H1576   1.086       .  S
N1573      O1583   1.262       .  A
N1573      O1584   1.262       .  A
N1575      O1581   1.262       .  A
N1575      O1582   1.262       .  A
C1585      H1595   1.085       .  S
C1585      C1586   1.398       .  A
C1585      C1590   1.401       .  A
C1586      C1591   1.480       .  S
C1586      C1587   1.408       .  A
C1587      C1588   1.400       .  A
C1587      N1592   1.431       .  S
C1588      H1593   1.084       .  S
C1588      C1589   1.408       .  A
C1589      C1590   1.421       .  A
C1590      N1594   1.430       .  S
C1591      C1596   1.408       .  A
C1591      C1600   1.401       .  A
N1592      O1607   1.262       .  A
N1592      O1608   1.262       .  A
N1594      O1605   1.262       .  A
N1594      O1606   1.262       .  A
C1596      C1597   1.393       .  A
C1596      N1601   1.432       .  S
C1597      H1602   1.110       .  S
C1597      C1598   1.407       .  A
C1598      C1599   1.418       .  A
C1599      C1600   1.404       .  A
C1599      N1603   1.429       .  S
C1600      H1604   1.099       .  S
N1601      O1611   1.262       .  A
N1601      O1612   1.262       .  A
N1603      O1609   1.262       .  A
N1603      O1610   1.262       .  A
C1613      H1623   1.086       .  S
C1613      C1614   1.397       .  A
C1613      C1618   1.395       .  A
C1614      C1619   1.476       .  S
C1614      C1615   1.407       .  A
C1615      C1616   1.403       .  A
C1615      N1620   1.429       .  S
C1616      H1621   1.085       .  S
C1616      C1617   1.409       .  A
C1617      C1618   1.416       .  A
C1618      N1622   1.428       .  S
C1619      C1624   1.410       .  A
C1619      C1628   1.400       .  A
N1620      O1635   1.262       .  A
N1620      O1636   1.262       .  A
N1622      O1633   1.262       .  A
N1622      O1634   1.262       .  A
C1624      C1625   1.397       .  A
C1624      N1629   1.429       .  S
C1625      H1630   1.086       .  S
C1625      C1626   1.401       .  A
C1626      C1627   1.413       .  A
C1627      C1628   1.400       .  A
C1627      N1631   1.429       .  S
C1628      H1632   1.086       .  S
N1629      O1639   1.262       .  A
N1629      O1640   1.261       .  A
N1631      O1637   1.261       .  A
N1631      O1638   1.262       .  A
C1641      H1651   1.086       .  S
C1641      C1642   1.402       .  A
C1641      C1646   1.401       .  A
C1642      C1647   1.487       .  S
C1642      C1643   1.412       .  A
C1643      C1644   1.400       .  A
C1643      N1648   1.430       .  S
C1644      H1649   1.086       .  S
C1644      C1645   1.405       .  A
C1645      C1646   1.418       .  A
C1646      N1650   1.430   1_655  S
C1647      C1652   1.413       .  A
C1647      C1656   1.405       .  A
N1648      O1663   1.262       .  A
N1648      O1664   1.262       .  A
N1650      O1661   1.262       .  A
N1650      O1662   1.262       .  A
C1652      C1653   1.400       .  A
C1652      N1657   1.429       .  S
C1653      H1658   1.086       .  S
C1653      C1654   1.399       .  A
C1654      C1655   1.406       .  A
C1655      C1656   1.399       .  A
C1655      N1659   1.429       .  S
C1656      H1660   1.086       .  S
N1657      O1667   1.262       .  A
N1657      O1668   1.262       .  A
N1659      O1665   1.262       .  A
N1659      O1666   1.262       .  A
C1669      H1679   1.086       .  S
C1669      C1670   1.398       .  A
C1669      C1674   1.400       .  A
C1670      C1675   1.469       .  S
C1670      C1671   1.404       .  A
C1671      C1672   1.395       .  A
C1671      N1676   1.429       .  S
C1672      H1677   1.085       .  S
C1672      C1673   1.407       .  A
C1673      C1674   1.417       .  A
C1674      N1678   1.430       .  S
C1675      C1680   1.406       .  A
C1675      C1684   1.396       .  A
N1676      O1691   1.262       .  A
N1676      O1692   1.262       .  A
N1678      O1689   1.262       .  A
N1678      O1690   1.262       .  A
C1680      C1681   1.402       .  A
C1680      N1685   1.429       .  S
C1681      H1686   1.084       .  S
C1681      C1682   1.407       .  A
C1682      C1683   1.416       .  A
C1683      C1684   1.395       .  A
C1683      N1687   1.430       .  S
C1684      H1688   1.085       .  S
N1685      O1695   1.262       .  A
N1685      O1696   1.262       .  A
N1687      O1693   1.262       .  A
N1687      O1694   1.262       .  A
C1697      H1707   1.086       .  S
C1697      C1698   1.401       .  A
C1697      C1702   1.400       .  A
C1698      C1703   1.474       .  S
C1698      C1699   1.408       .  A
C1699      C1700   1.397       .  A
C1699      N1704   1.431       .  S
C1700      H1705   1.086       .  S
C1700      C1701   1.404       .  A
C1701      C1702   1.412       .  A
C1702      N1706   1.429       .  S
C1703      C1708   1.407       .  A
C1703      C1712   1.399       .  A
N1704      O1719   1.262       .  A
N1704      O1720   1.262       .  A
N1706      O1717   1.262       .  A
N1706      O1718   1.262       .  A
C1708      C1709   1.400       .  A
C1708      N1713   1.431       .  S
C1709      H1714   1.084       .  S
C1709      C1710   1.406       .  A
C1710      C1711   1.413       .  A
C1711      C1712   1.399       .  A
C1711      N1715   1.431       .  S
C1712      H1716   1.084       .  S
N1713      O1723   1.262       .  A
N1713      O1724   1.262       .  A
N1715      O1721   1.262       .  A
N1715      O1722   1.261       .  A
C1725      H1735   1.086       .  S
C1725      C1726   1.401       .  A
C1725      C1730   1.403       .  A
C1726      C1731   1.477       .  S
C1726      C1727   1.405       .  A
C1727      C1728   1.396       .  A
C1727      N1732   1.429       .  S
C1728      H1733   1.085       .  S
C1728      C1729   1.407       .  A
C1729      C1730   1.418       .  A
C1730      N1734   1.430       .  S
C1731      C1736   1.404       .  A
C1731      C1740   1.396       .  A
N1732      O1747   1.262       .  A
N1732      O1748   1.262       .  A
N1734      O1745   1.262       .  A
N1734      O1746   1.262       .  A
C1736      C1737   1.404       .  A
C1736      N1741   1.428       .  S
C1737      H1742   1.085       .  S
C1737      C1738   1.412       .  A
C1738      C1739   1.416       .  A
C1739      C1740   1.397       .  A
C1739      N1743   1.424       .  S
C1740      H1744   1.087       .  S
N1741      O1751   1.262       .  A
N1741      O1752   1.262       .  A
N1743      O1749   1.262       .  A
N1743      O1750   1.260       .  A
C1753      H1763   1.086       .  S
C1753      C1754   1.401       .  A
C1753      C1758   1.398       .  A
C1754      C1759   1.474       .  S
C1754      C1755   1.404       .  A
C1755      C1756   1.396       .  A
C1755      N1760   1.429       .  S
C1756      H1761   1.086       .  S
C1756      C1757   1.408       .  A
C1757      C1758   1.415       .  A
C1758      N1762   1.430       .  S
C1759      C1764   1.405       .  A
C1759      C1768   1.401       .  A
N1760      O1775   1.262       .  A
N1760      O1776   1.262       .  A
N1762      O1773   1.262       .  A
N1762      O1774   1.262       .  A
C1764      C1765   1.393       .  A
C1764      N1769   1.430       .  S
C1765      H1770   1.085       .  S
C1765      C1766   1.408       .  A
C1766      C1767   1.418       .  A
C1767      C1768   1.402       .  A
C1767      N1771   1.429       .  S
C1768      H1772   1.086       .  S
N1769      O1779   1.262       .  A
N1769      O1780   1.262       .  A
N1771      O1777   1.262       .  A
N1771      O1778   1.262       .  A
C1781      H1791   1.086       .  S
C1781      C1782   1.398       .  A
C1781      C1786   1.402       .  A
C1782      C1787   1.477       .  S
C1782      C1783   1.407       .  A
C1783      C1784   1.398       .  A
C1783      N1788   1.430       .  S
C1784      H1789   1.085       .  S
C1784      C1785   1.407       .  A
C1785      C1786   1.419       .  A
C1786      N1790   1.429       .  S
C1787      C1792   1.406       .  A
C1787      C1796   1.404       .  A
N1788      O1803   1.262       .  A
N1788      O1804   1.262       .  A
N1790      O1801   1.262       .  A
N1790      O1802   1.262       .  A
C1792      C1793   1.393       .  A
C1792      N1797   1.431       .  S
C1793      H1798   1.086       .  S
C1793      C1794   1.404       .  A
C1794      C1795   1.413       .  A
C1795      C1796   1.407       .  A
C1795      N1799   1.428       .  S
C1796      H1800   1.086       .  S
N1797      O1807   1.262       .  A
N1797      O1808   1.262       .  A
N1799      O1805   1.262       .  A
N1799      O1806   1.262       .  A
C1809      H1819   1.087       .  S
C1809      C1810   1.401       .  A
C1809      C1814   1.399       .  A
C1810      C1815   1.478       .  S
C1810      C1811   1.406       .  A
C1811      C1812   1.399       .  A
C1811      N1816   1.429       .  S
C1812      H1817   1.086       .  S
C1812      C1813   1.409       .  A
C1813      C1814   1.415       .  A
C1814      N1818   1.430       .  S
C1815      C1820   1.405       .  A
C1815      C1824   1.401       .  A
N1816      O1831   1.262       .  A
N1816      O1832   1.262       .  A
N1818      O1829   1.262       .  A
N1818      O1830   1.262       .  A
C1820      C1821   1.396       .  A
C1820      N1825   1.429       .  S
C1821      H1826   1.085       .  S
C1821      C1822   1.408       .  A
C1822      C1823   1.419       .  A
C1823      C1824   1.403       .  A
C1823      N1827   1.429       .  S
C1824      H1828   1.086       .  S
N1825      O1835   1.262       .  A
N1825      O1836   1.262       .  A
N1827      O1833   1.262       .  A
N1827      O1834   1.262       .  A
C1837      H1847   1.086       .  S
C1837      C1838   1.403       .  A
C1837      C1842   1.397       .  A
C1838      C1843   1.485       .  S
C1838      C1839   1.408       .  A
C1839      C1840   1.403       .  A
C1839      N1844   1.429       .  S
C1840      H1845   1.086       .  S
C1840      C1841   1.409       .  A
C1841      C1842   1.414       .  A
C1842      N1846   1.430       .  S
C1843      C1848   1.410       .  A
C1843      C1852   1.406       .  A
N1844      O1859   1.262       .  A
N1844      O1860   1.262       .  A
N1846      O1857   1.262       .  A
N1846      O1858   1.262       .  A
C1848      C1849   1.397       .  A
C1848      N1853   1.430       .  S
C1849      H1854   1.086       .  S
C1849      C1850   1.400       .  A
C1850      C1851   1.409       .  A
C1851      C1852   1.404       .  A
C1851      N1855   1.429       .  S
C1852      H1856   1.086       .  S
N1853      O1863   1.262       .  A
N1853      O1864   1.262       .  A
N1855      O1861   1.262       .  A
N1855      O1862   1.262       .  A
C1865      H1875   1.086       .  S
C1865      C1866   1.397       .  A
C1865      C1870   1.396       .  A
C1866      C1871   1.467       .  S
C1866      C1867   1.403       .  A
C1867      C1868   1.397       .  A
C1867      N1872   1.429       .  S
C1868      H1873   1.085       .  S
C1868      C1869   1.409       .  A
C1869      C1870   1.418       .  A
C1870      N1874   1.430       .  S
C1871      C1876   1.406       .  A
C1871      C1880   1.399       .  A
N1872      O1887   1.262       .  A
N1872      O1888   1.262       .  A
N1874      O1885   1.262       .  A
N1874      O1886   1.262       .  A
C1876      C1877   1.395       .  A
C1876      N1881   1.429       .  S
C1877      H1882   1.087       .  S
C1877      C1878   1.402       .  A
C1878      C1879   1.413       .  A
C1879      C1880   1.398       .  A
C1879      N1883   1.429       .  S
C1880      H1884   1.087       .  S
N1881      O1891   1.262       .  A
N1881      O1892   1.262       .  A
N1883      O1889   1.262       .  A
N1883      O1890   1.262       .  A
C1893      H1903   1.086       .  S
C1893      C1894   1.402       .  A
C1893      C1898   1.401       .  A
C1894      C1899   1.481       .  S
C1894      C1895   1.409       .  A
C1895      C1896   1.395       .  A
C1895      N1900   1.430       .  S
C1896      H1901   1.086       .  S
C1896      C1897   1.406       .  A
C1897      C1898   1.417       .  A
C1898      N1902   1.430       .  S
C1899      C1904   1.412       .  A
C1899      C1908   1.404       .  A
N1900      O1915   1.262       .  A
N1900      O1916   1.262       .  A
N1902      O1913   1.262       .  A
N1902      O1914   1.262       .  A
C1904      C1905   1.398       .  A
C1904      N1909   1.430       .  S
C1905      H1910   1.086       .  S
C1905      C1906   1.399       .  A
C1906      C1907   1.406       .  A
C1907      C1908   1.398       .  A
C1907      N1911   1.429       .  S
C1908      H1912   1.086       .  S
N1909      O1919   1.262       .  A
N1909      O1920   1.262       .  A
N1911      O1917   1.262       .  A
N1911      O1918   1.262       .  A
