geometry optimzed in LAMMPS
_audit_creation_date              2020-11-30 
_audit_creation_method            'lammps2cif' 
_symmetry_space_group_name_H-M    'P1' 
_symmetry_Int_Tables_number       1 
_symmetry_cell_setting            triclinic 
loop_ 
_symmetry_equiv_pos_as_xyz 
  x,y,z 
_cell_length_a                    56.87484827 
_cell_length_b                    41.47019304444766 
_cell_length_c                    35.02203736518011 
_cell_angle_alpha                 89.99522554222973 
_cell_angle_beta                  90.09039102711279 
_cell_angle_gamma                 89.99219831855017 
loop_ 
_atom_site_label 
_atom_site_type_symbol 
_atom_site_fract_x 
_atom_site_fract_y 
_atom_site_fract_z 
_atom_site_charge 
O1          O  0.46195394  0.43670343  0.42722238    -0.75400
O2          O  0.43439301  0.46619579  0.45904627    -0.54300
C3          C  0.44053605  0.44386483  0.43557708     0.78300
O4          O  0.04149008  0.43935999  0.07432485    -0.60000
O5          O  0.06858134  0.46760050  0.04003197    -0.53000
C6          C  0.06280507  0.44612679  0.06484876     0.70300
O7          O  0.46232080  0.43722121  0.07315931    -0.74600
O8          O  0.43512397  0.46682526  0.04058599    -0.55100
C9          C  0.44096051  0.44452757  0.06435849     0.76300
O10         O  0.04137118  0.43763586  0.42500744    -0.59700
O11         O  0.06863883  0.46785591  0.45665789    -0.52800
C12         C  0.06273319  0.44554307  0.43298639     0.72900
Zr13       Zr  0.50163231  0.45459136  0.44273122     2.54700
O14         O  0.50237113  0.39590781  0.44360450    -0.80300
O15         O  0.00146013  0.45769358  0.37310814    -0.93700
Zr16       Zr  0.50177390  0.45588377  0.05666495     2.64700
O17         O  0.50168920  0.39720216  0.05927990    -0.98600
O18         O  0.00120262  0.46169047  0.12593734    -0.80700
O19         O  0.47917925  0.45463000  0.49975383    -0.84100
O20         O  0.02415866  0.45446431  0.49963083    -2.18800
O21         O  0.04108002  0.06785653  0.42358483    -0.67400
O22         O  0.06815171  0.03866185  0.45690308    -0.52000
C23         C  0.06238796  0.06064130  0.43273177     0.71300
O24         O  0.46227180  0.06905316  0.07089480    -0.60400
O25         O  0.43459858  0.03959535  0.03923884    -0.52300
C26         C  0.44082052  0.06195559  0.06261257     0.73100
O27         O  0.04162753  0.06830155  0.07263648    -0.71800
O28         O  0.06861562  0.04051944  0.03747953    -0.50400
C29         C  0.06286965  0.06188786  0.06237525     0.74500
O30         O  0.46217481  0.06798494  0.42478968    -0.67100
O31         O  0.43472152  0.03946667  0.45804860    -0.54300
C32         C  0.44082189  0.06117802  0.43372414     0.72900
Zr33       Zr  0.00159446  0.05018355  0.44118094     2.77500
O34         O  0.00081148  0.10890645  0.43833900    -0.97800
O35         O  0.00093388  0.04425771  0.37203649    -0.78600
Zr36       Zr  0.00190163  0.05142063  0.05496944     2.70100
O37         O  0.00245887  0.11011055  0.05391069    -0.79900
O38         O  0.00140432  0.04995314  0.12445074    -0.99000
Zr39       Zr  0.45658195  0.00299955  0.99905608     2.21500
Zr40       Zr  0.04648479  0.50301467  0.49850912     2.11100
O41         O  0.02409539  0.05171182  0.99789800    -2.47700
O42         O  0.47914984  0.05127451  0.99823246    -0.79700
O43         O  0.02460483  0.50244495  0.44061294    -0.71900
O44         O  0.47872578  0.00371451  0.05696962    -2.32800
O45         O  0.47852683  0.00250488  0.44111074    -2.29100
O46         O  0.02488281  0.50374338  0.05688842    -0.73600
H47         H  0.03422541  0.43595674  0.99978952     0.78400
H48         H  0.46853627  0.00397629  0.07900919     0.79400
H49         H  0.03415674  0.07030508  0.49772746     0.81700
H50         H  0.46822957  0.00227625  0.41916238     0.79300
H51         H  0.50290936  0.43839672  0.13536212     0.42300
H52         H  0.01437893  0.03513789  0.13142421     0.41300
H53         H  0.50481550  0.11586198  0.02783814     0.41000
H54         H  0.01407059  0.11599395  0.45466143     0.38900
H55         H  0.01522271  0.03159010  0.36606794     0.42000
H56         H  0.48513126  0.46279547  0.36614797     0.36800
H57         H  0.50044321  0.39020424  0.47087076     0.42900
H58         H  0.01474226  0.39052127  0.04376515     0.39300
H59         H  0.00579207  0.11422408  0.41200596     0.44300
H60         H  0.50285337  0.43389425  0.36512865     0.43000
H61         H  0.50889473  0.39178776  0.08421915     0.43100
H62         H  0.00704398  0.07154193  0.13232223     0.43500
O63         O  0.29069018  0.31779388  0.17536514    -0.75400
O64         O  0.31848057  0.28868162  0.20713117    -0.54300
C65         C  0.31219302  0.31087879  0.18355307     0.78300
O66         O  0.21270029  0.31907989  0.32231518    -0.60000
O67         O  0.18483028  0.28894230  0.29198169    -0.53000
C68         C  0.19121566  0.31160636  0.31488872     0.70300
O69         O  0.29164119  0.31933727  0.32095434    -0.74600
O70         O  0.31867218  0.28920705  0.28883280    -0.55100
C71         C  0.31291082  0.31170857  0.31228962     0.76300
O72         O  0.21140826  0.31521892  0.17378858    -0.59700
O73         O  0.18399342  0.28827384  0.20884561    -0.52800
C74         C  0.19001925  0.30917462  0.18349617     0.72900
Zr75       Zr  0.25120920  0.29937843  0.19144167     2.54700
O76         O  0.25005962  0.35803036  0.18980100    -0.80300
O77         O  0.25168369  0.29698710  0.12199597    -0.93700
Zr78       Zr  0.25205261  0.30162029  0.30474026     2.64700
O79         O  0.25311393  0.36028160  0.30234619    -0.98600
O80         O  0.25170534  0.30219642  0.37422014    -0.80700
O81         O  0.27431748  0.30129845  0.24766651    -0.84100
O82         O  0.22891367  0.30128347  0.24845137    -2.18800
O83         O  0.21147377  0.18841119  0.17547462    -0.67400
O84         O  0.18416592  0.21626788  0.21002357    -0.52000
C85         C  0.19012883  0.19515529  0.18490966     0.71300
O86         O  0.29165912  0.18684998  0.32139153    -0.60400
O87         O  0.31874038  0.21631729  0.28850839    -0.52300
C88         C  0.31294255  0.19386789  0.31200018     0.73100
O89         O  0.21267441  0.18838761  0.32514171    -0.71800
O90         O  0.18498027  0.21726877  0.29273667    -0.50400
C91         C  0.19119321  0.19541848  0.31681802     0.74500
O92         O  0.29098909  0.18582400  0.17686782    -0.67100
O93         O  0.31828829  0.21612767  0.20826977    -0.54300
C94         C  0.31238569  0.19344924  0.18511240     0.72900
Zr95       Zr  0.25137994  0.20394566  0.19374930     2.77500
O96         O  0.25116064  0.14529294  0.19750623    -0.97800
O97         O  0.25222057  0.20468775  0.12424009    -0.78600
Zr98       Zr  0.25206923  0.20635844  0.30759988     2.70100
O99         O  0.25260524  0.14805859  0.31547702    -0.79900
O100        O  0.25356503  0.21547174  0.37624467    -0.99000
Zr101      Zr  0.29656839  0.25284119  0.24854784     2.21500
Zr102      Zr  0.20644273  0.25276722  0.25027283     2.11100
O103        O  0.22914286  0.20440931  0.25098413    -2.47700
O104        O  0.27418685  0.20455700  0.25034362    -0.79700
O105        O  0.22827013  0.25161653  0.19214937    -0.71900
O106        O  0.27508743  0.25394220  0.30694172    -2.32800
O107        O  0.27421163  0.25171248  0.19100359    -2.29100
O108        O  0.22897450  0.25397703  0.30768040    -0.73600
H109        H  0.21887572  0.32006238  0.24806384     0.78400
H110        H  0.28550457  0.25424607  0.32874869     0.79400
H111        H  0.21911248  0.18564285  0.25149480     0.81700
H112        H  0.28434215  0.25136967  0.16891569     0.79300
H113        H  0.26712302  0.29316522  0.38181491     0.42300
H114        H  0.23895092  0.22748339  0.38206446     0.41300
H115        H  0.24890271  0.13954374  0.28975429     0.41000
H116        H  0.23740190  0.13993916  0.21359251     0.38900
H117        H  0.24203837  0.22309469  0.11707264     0.42000
H118        H  0.26525399  0.28299440  0.11565847     0.36800
H119        H  0.26006480  0.36483177  0.21151732     0.42900
H120        H  0.24008838  0.36638277  0.28500048     0.39300
H121        H  0.24667843  0.13809287  0.17154889     0.44300
H122        H  0.25664215  0.31883254  0.11398430     0.43000
H123        H  0.24781126  0.36724743  0.32796394     0.43100
H124        H  0.25106231  0.19387547  0.38757130     0.43500
C125        C  0.08202737  0.08091117  0.07986838    -0.01400
C126        C  0.10292619  0.08630856  0.05976676    -0.09400
C127        C  0.12080960  0.10521829  0.07538168    -0.18300
C128        C  0.11846188  0.11914439  0.11207266     0.04100
C129        C  0.09745020  0.11285366  0.13273917     0.18300
C130        C  0.07941469  0.09427547  0.11635659    -0.19700
C131        C  0.09456760  0.12506384  0.16969168    -0.20900
C132        C  0.11207152  0.14363250  0.18660085    -0.19500
C133        C  0.13277516  0.15080818  0.16678444     0.19700
C134        C  0.13623944  0.13881366  0.12913766     0.01800
C135        C  0.15735996  0.14705845  0.11024822    -0.14200
C136        C  0.17455567  0.16553805  0.12837059    -0.11900
C137        C  0.17122643  0.17688817  0.16559948     0.01400
C138        C  0.15014344  0.16977195  0.18451322    -0.24100
H139        H  0.10532078  0.07632147  0.03144149     0.09400
H140        H  0.13627316  0.10830012  0.05805119     0.12900
H141        H  0.06337881  0.08989787  0.13225299     0.11700
H142        H  0.07867443  0.12012851  0.18570029     0.12900
H143        H  0.10934227  0.15257855  0.21533821     0.11900
H144        H  0.16119136  0.13958311  0.08147675     0.09000
H145        H  0.19058728  0.17108653  0.11304570     0.12200
H146        H  0.14747992  0.17837003  0.21343944     0.14100
C147        C  0.08167716  0.07945886  0.41508249    -0.01400
C148        C  0.10499706  0.07423445  0.42650664    -0.09400
C149        C  0.12326173  0.09269773  0.41162652    -0.18300
C150        C  0.11886215  0.11727567  0.38458733     0.04100
C151        C  0.09526088  0.12214260  0.37243633     0.18300
C152        C  0.07698049  0.10343025  0.38780428    -0.19700
C153        C  0.09003986  0.14569166  0.34506430    -0.20900
C154        C  0.10779606  0.16454420  0.32941518    -0.19500
C155        C  0.13117098  0.16057824  0.34109183     0.19700
C156        C  0.13703128  0.13705964  0.36906499     0.01800
C157        C  0.16083076  0.13444546  0.38035587    -0.14200
C158        C  0.17811616  0.15374422  0.36388497    -0.11900
C159        C  0.17240444  0.17641448  0.33567207     0.01400
C160        C  0.14877250  0.17990448  0.32474686    -0.24100
H161        H  0.10925357  0.05592449  0.44746729     0.09400
H162        H  0.14062099  0.08701736  0.42192257     0.12900
H163        H  0.05904354  0.10771662  0.37857412     0.11700
H164        H  0.07210168  0.14947631  0.33557191     0.12900
H165        H  0.10319950  0.18242388  0.30809326     0.11900
H166        H  0.16674980  0.11773228  0.40184704     0.09000
H167        H  0.19613930  0.15062646  0.37321904     0.12200
H168        H  0.14403329  0.19738305  0.30303184     0.14100
C169        C  0.08197803  0.42727720  0.08308052    -0.01400
C170        C  0.10527291  0.43105681  0.07090442    -0.09400
C171        C  0.12331112  0.41246226  0.08651081    -0.18300
C172        C  0.11870107  0.38919290  0.11506894     0.04100
C173        C  0.09512453  0.38567637  0.12778596     0.18300
C174        C  0.07709694  0.40456481  0.11177377    -0.19700
C175        C  0.08964566  0.36315270  0.15621068    -0.20900
C176        C  0.10708425  0.34379789  0.17211709    -0.19500
C177        C  0.13043830  0.34639385  0.15991327     0.19700
C178        C  0.13658899  0.36920184  0.13127804     0.01800
C179        C  0.16038342  0.37090169  0.11996787    -0.14200
C180        C  0.17731484  0.35098996  0.13641198    -0.11900
C181        C  0.17132339  0.32861661  0.16480336     0.01400
C182        C  0.14772708  0.32638269  0.17628723    -0.24100
H183        H  0.10965742  0.44826625  0.04876502     0.09400
H184        H  0.14064526  0.41685304  0.07535791     0.12900
H185        H  0.05917626  0.40132858  0.12156432     0.12700
H186        H  0.07171572  0.36040283  0.16613532     0.12900
H187        H  0.10224547  0.32657771  0.19402204     0.11900
H188        H  0.16659459  0.38740282  0.09850610     0.09000
H189        H  0.19533481  0.35345542  0.12688985     0.12200
H190        H  0.14279870  0.30935387  0.19836148     0.14100
C191        C  0.42216408  0.08121412  0.08130661    -0.01400
C192        C  0.42811703  0.10395833  0.10930197    -0.09400
C193        C  0.41093187  0.12275691  0.12674574    -0.18300
C194        C  0.38696386  0.11948284  0.11680089     0.04100
C195        C  0.38091773  0.09625507  0.08857059     0.18300
C196        C  0.39844779  0.07749884  0.07110976    -0.19700
C197        C  0.35740194  0.09184715  0.07797459    -0.20900
C198        C  0.33968310  0.10986348  0.09505642    -0.19500
C199        C  0.34506309  0.13300830  0.12283152     0.19700
C200        C  0.36880139  0.13833337  0.13391970     0.01800
C201        C  0.37331841  0.16241387  0.16154434    -0.14200
C202        C  0.35506874  0.18024169  0.17760256    -0.11900
C203        C  0.33162750  0.17471199  0.16701353     0.01400
C204        C  0.32680306  0.15097070  0.13950861    -0.24100
H205        H  0.44624232  0.10737017  0.11794401     0.09400
H206        H  0.41705668  0.13951932  0.14802030     0.12900
H207        H  0.39356372  0.06007061  0.04942256     0.11700
H208        H  0.35266006  0.07422507  0.05644094     0.12900
H209        H  0.32163449  0.10574413  0.08636361     0.11900
H210        H  0.39075990  0.16824088  0.17134442     0.09000
H211        H  0.35943937  0.19836236  0.19872581     0.12200
H212        H  0.30878600  0.14645351  0.13088937     0.14100
C213        C  0.42185648  0.42480673  0.41663737    -0.01400
C214        C  0.42714117  0.40672263  0.38396881    -0.09400
C215        C  0.41004833  0.38796008  0.36615495    -0.18300
C216        C  0.38689300  0.38644474  0.38059026     0.04100
C217        C  0.38147044  0.40511569  0.41349958     0.18300
C218        C  0.39888770  0.42402719  0.43114029    -0.19700
C219        C  0.35870161  0.40480283  0.42859340    -0.20900
C220        C  0.34110261  0.38653062  0.41150446    -0.19500
C221        C  0.34590673  0.36783933  0.37916396     0.19700
C222        C  0.36892835  0.36723339  0.36344389     0.01800
C223        C  0.37296532  0.34733054  0.33131431    -0.14200
C224        C  0.35485404  0.32923694  0.31520071    -0.11900
C225        C  0.33209699  0.33035743  0.33033501     0.01400
C226        C  0.32777762  0.34970241  0.36243060    -0.24100
H227        H  0.44465423  0.40712794  0.37185712     0.09400
H228        H  0.41557662  0.37505588  0.34105019     0.12900
H229        H  0.39459430  0.43785248  0.45647218     0.11700
H230        H  0.35443666  0.41893583  0.45367842     0.12900
H231        H  0.32360822  0.38697558  0.42372646     0.11900
H232        H  0.38991368  0.34507382  0.31792689     0.09000
H233        H  0.35869714  0.31456653  0.29038486     0.12200
H234        H  0.31027444  0.35054304  0.37462871     0.14100
C235        C  0.42214310  0.08001181  0.41458531    -0.01400
C236        C  0.42720268  0.09734485  0.38123983    -0.09400
C237        C  0.41003983  0.11602227  0.36343054    -0.18300
C238        C  0.38708715  0.11821909  0.37861342     0.04100
C239        C  0.38197587  0.10042241  0.41232651     0.18300
C240        C  0.39941157  0.08152581  0.42984279    -0.19700
C241        C  0.35951256  0.10167178  0.42847158    -0.20900
C242        C  0.34187168  0.12001301  0.41164458    -0.19500
C243        C  0.34631836  0.13776139  0.37843999     0.19700
C244        C  0.36904244  0.13737931  0.36158787     0.01800
C245        C  0.37270731  0.15631308  0.32853195    -0.14200
C246        C  0.35455699  0.17461931  0.31281815    -0.11900
C247        C  0.33211609  0.17461412  0.32924165     0.01400
C248        C  0.32813446  0.15602554  0.36205305    -0.24100
H249        H  0.44457684  0.09643963  0.36864395     0.09400
H250        H  0.41536117  0.12840203  0.33783609     0.12900
H251        H  0.39534227  0.06837379  0.45577168     0.11700
H252        H  0.35552965  0.08827334  0.45424118     0.12900
H253        H  0.32462249  0.12036198  0.42475079     0.11900
H254        H  0.38938973  0.15764552  0.31412492     0.09000
H255        H  0.35811163  0.18862413  0.28735492     0.12200
H256        H  0.31088162  0.15601552  0.37518971     0.14100
C257        C  0.17274255  0.33130737  0.33335658    -0.01400
C258        C  0.17828505  0.36193928  0.34770719    -0.09400
C259        C  0.16100094  0.38159668  0.36359203    -0.18300
C260        C  0.13739428  0.37117571  0.36592846     0.04100
C261        C  0.13192549  0.33976465  0.35216242     0.18300
C262        C  0.14949873  0.32030305  0.33589340    -0.19700
C263        C  0.10892463  0.32799665  0.35457541    -0.20900
C264        C  0.09115479  0.34680074  0.37022776    -0.19500
C265        C  0.09590784  0.37791254  0.38367911     0.19700
C266        C  0.11906636  0.39066930  0.38159850     0.01800
C267        C  0.12282540  0.42234080  0.39539248    -0.14200
C268        C  0.10452840  0.44010820  0.41159044    -0.11900
C269        C  0.08182669  0.42720903  0.41414877     0.01400
C270        C  0.07761227  0.39622623  0.39960199    -0.24100
H271        H  0.19608208  0.37114001  0.34604558     0.09400
H272        H  0.16673764  0.40481508  0.37373923     0.12900
H273        H  0.14505306  0.29652143  0.32522000     0.11700
H274        H  0.10464135  0.30404732  0.34430814     0.12900
H275        H  0.07353915  0.33692703  0.37180302     0.11900
H276        H  0.13970416  0.43406893  0.39430084     0.09000
H277        H  0.10820348  0.46413556  0.42217592     0.12200
H278        H  0.06012047  0.38595284  0.40149255     0.14100
C279        C  0.42167356  0.42573217  0.08236217    -0.01400
C280        C  0.39815553  0.43281415  0.07368064    -0.09400
C281        C  0.37983362  0.41483168  0.08933506    -0.18300
C282        C  0.38435307  0.38880859  0.11437212     0.04100
C283        C  0.40819363  0.38173427  0.12335741     0.18300
C284        C  0.42650692  0.40014398  0.10747087    -0.19700
C285        C  0.41363878  0.35617122  0.14794456    -0.20900
C286        C  0.39590791  0.33738002  0.16378182    -0.19500
C287        C  0.37226912  0.34369801  0.15550825     0.19700
C288        C  0.36612034  0.36950553  0.13068511     0.01800
C289        C  0.34198530  0.37481145  0.12327340    -0.14200
C290        C  0.32475987  0.35552077  0.13998891    -0.11900
C291        C  0.33083387  0.33027531  0.16477270     0.01400
C292        C  0.35472139  0.32441955  0.17215436    -0.24100
H293        H  0.39376581  0.45233772  0.05440068     0.09400
H294        H  0.36233656  0.42188904  0.08104051     0.12900
H295        H  0.44458306  0.39426300  0.11446535     0.11700
H296        H  0.43176351  0.35061240  0.15492730     0.12900
H297        H  0.40072943  0.31776115  0.18268912     0.11900
H298        H  0.33575879  0.39375011  0.10480940     0.09000
H299        H  0.30650570  0.36071972  0.13361744     0.12200
H300        H  0.35974013  0.30498175  0.19120275     0.14100
O301        O  0.46191777  0.43668843  0.92722946    -0.75400
O302        O  0.43432988  0.46619586  0.95894548    -0.54300
C303        C  0.44049180  0.44381882  0.93554772     0.78300
O304        O  0.04158047  0.43951024  0.57445538    -0.60000
O305        O  0.06868338  0.46747396  0.53987875    -0.53000
C306        C  0.06289932  0.44620377  0.56492604     0.70300
O307        O  0.46223002  0.43715158  0.57290967    -0.74600
O308        O  0.43501477  0.46694584  0.54062960    -0.55100
C309        C  0.44085249  0.44454397  0.56424993     0.76300
O310        O  0.04144749  0.43787525  0.92532787    -0.59700
O311        O  0.06871013  0.46830041  0.95671093    -0.52800
C312        C  0.06280976  0.44587645  0.93319367     0.72900
Zr313      Zr  0.50159063  0.45460952  0.94271291     2.54700
O314        O  0.50246151  0.39595569  0.94453359    -0.80300
O315        O  0.00120936  0.45685594  0.87299364    -0.93700
Zr316      Zr  0.50176854  0.45590785  0.55673887     2.64700
O317        O  0.50178479  0.39726591  0.55982660    -0.98600
O318        O  0.00139502  0.46162927  0.62598568    -0.80700
O319        O  0.47913647  0.45464008  0.99970941    -0.84100
O320        O  0.02411249  0.45465631  0.99959957    -2.18800
O321        O  0.04099181  0.06811015  0.92358136    -0.67400
O322        O  0.06806637  0.03882284  0.95676749    -0.52000
C323        C  0.06229758  0.06083589  0.93264592     0.71300
O324        O  0.46224380  0.06908697  0.57102280    -0.60400
O325        O  0.43458840  0.03963274  0.53932884    -0.52300
C326        C  0.44080016  0.06199358  0.56271181     0.73100
O327        O  0.04157116  0.06833901  0.57260685    -0.71800
O328        O  0.06854691  0.04038551  0.53758435    -0.50400
C329        C  0.06280805  0.06183532  0.56239540     0.74500
O330        O  0.46213535  0.06796052  0.92486754    -0.67100
O331        O  0.43465885  0.03931015  0.95793087    -0.54300
C332        C  0.44076585  0.06108872  0.93369341     0.72900
Zr333      Zr  0.00154317  0.05025798  0.94104714     2.77500
O334        O  0.00073634  0.10894294  0.93715897    -0.97800
O335        O  0.00104166  0.04386834  0.87194808    -0.78600
Zr336      Zr  0.00187503  0.05133579  0.55502490     2.70100
O337        O  0.00232747  0.11003266  0.55427626    -0.79900
O338        O  0.00151124  0.04897528  0.62447715    -0.99000
Zr339      Zr  0.45659253  0.00306471  0.49912272     2.21500
Zr340      Zr  0.04643589  0.50320677  0.99861402     2.11100
O341        O  0.02413228  0.05153023  0.49800200    -2.47700
O342        O  0.47910709  0.05138507  0.49830229    -0.79700
O343        O  0.02463875  0.50255608  0.94056727    -0.71900
O344        O  0.47871478  0.00378756  0.55707449    -2.32800
O345        O  0.47855389  0.00245520  0.94111518    -2.29100
O346        O  0.02490292  0.50368444  0.55674521    -0.73600
H347        H  0.03425330  0.43574567  0.49983303     0.78400
H348        H  0.46852463  0.00403114  0.57911337     0.79400
H349        H  0.03411310  0.07049393  0.99762995     0.81700
H350        H  0.46826061  0.00221673  0.91916325     0.79300
H351        H  0.50820414  0.44057893  0.63545200     0.42300
H352        H  0.01411238  0.03344504  0.63106580     0.41300
H353        H  0.50545840  0.11600762  0.52816306     0.41000
H354        H  0.01375013  0.11626071  0.95385623     0.38900
H355        H  0.01439289  0.02927135  0.86644585     0.42000
H356        H  0.48508557  0.46291750  0.86615843     0.36800
H357        H  0.49738233  0.39044003  0.97075615     0.42900
H358        H  0.01428039  0.39037440  0.54337521     0.39300
H359        H  0.00608854  0.11396166  0.91093627     0.44300
H360        H  0.50156519  0.43265707  0.86558734     0.43000
H361        H  0.50727430  0.39212622  0.58596674     0.43100
H362        H  0.00773308  0.07015973  0.63271987     0.43500
O363        O  0.29058785  0.31780643  0.67539741    -0.75400
O364        O  0.31840083  0.28863445  0.70702937    -0.54300
C365        C  0.31209282  0.31087391  0.68352351     0.78300
O366        O  0.21260952  0.31933924  0.82184806    -0.60000
O367        O  0.18474822  0.28900633  0.79174353    -0.53000
C368        C  0.19111846  0.31183863  0.81444099     0.70300
O369        O  0.29162063  0.31924003  0.82096015    -0.74600
O370        O  0.31864179  0.28913098  0.78878504    -0.55100
C371        C  0.31289053  0.31158040  0.81230858     0.76300
O372        O  0.21138896  0.31530380  0.67381908    -0.59700
O373        O  0.18397343  0.28805773  0.70855195    -0.52800
C374        C  0.18999822  0.30909758  0.68336347     0.72900
Zr375      Zr  0.25114962  0.29928098  0.69141334     2.54700
O376        O  0.24984219  0.35792781  0.69017532    -0.80300
O377        O  0.25185208  0.29679305  0.62197508    -0.93700
Zr378      Zr  0.25200298  0.30157595  0.80471626     2.64700
O379        O  0.25326527  0.36025551  0.80337155    -0.98600
O380        O  0.25162657  0.30098187  0.87417923    -0.80700
O381        O  0.27426356  0.30126092  0.74761830    -0.84100
O382        O  0.22887522  0.30118653  0.74840494    -2.18800
O383        O  0.21153513  0.18814088  0.67552954    -0.67400
O384        O  0.18420038  0.21604773  0.70995261    -0.52000
C385        C  0.19018725  0.19488632  0.68490327     0.71300
O386        O  0.29162608  0.18690294  0.82139907    -0.60400
O387        O  0.31870470  0.21628412  0.78840067    -0.52300
C388        C  0.31290549  0.19387334  0.81193755     0.73100
O389        O  0.21264462  0.18832609  0.82502862    -0.71800
O390        O  0.18494597  0.21713338  0.79254242    -0.50400
C391        C  0.19116783  0.19529630  0.81662823     0.74500
O392        O  0.29099615  0.18581989  0.67690902    -0.67100
O393        O  0.31828424  0.21619130  0.70823889    -0.54300
C394        C  0.31238764  0.19348701  0.68512337     0.72900
Zr395      Zr  0.25137321  0.20382850  0.69382665     2.77500
O396        O  0.25112996  0.14516731  0.69756914    -0.97800
O397        O  0.25201871  0.20449918  0.62432295    -0.78600
Zr398      Zr  0.25202877  0.20637329  0.80764327     2.70100
O399        O  0.25252668  0.14806909  0.81540500    -0.79900
O400        O  0.25339189  0.21527980  0.87634404    -0.99000
Zr401      Zr  0.29652156  0.25282004  0.74850844     2.21500
Zr402      Zr  0.20639625  0.25268984  0.75018737     2.11100
O403        O  0.22912315  0.20435878  0.75102633    -2.47700
O404        O  0.27417541  0.20450680  0.75041993    -0.79700
O405        O  0.22824104  0.25148677  0.69210121    -0.71900
O406        O  0.27505941  0.25393711  0.80690524    -2.32800
O407        O  0.27415522  0.25162304  0.69100734    -2.29100
O408        O  0.22889997  0.25396647  0.80763420    -0.73600
H409        H  0.21884670  0.31997418  0.74797760     0.78400
H410        H  0.28548402  0.25424367  0.82870189     0.79400
H411        H  0.21911154  0.18557499  0.75154527     0.81700
H412        H  0.28428061  0.25127433  0.66891523     0.79300
H413        H  0.26717225  0.29225124  0.88157807     0.42300
H414        H  0.23869765  0.22710315  0.88217573     0.41300
H415        H  0.25024363  0.13959005  0.78923656     0.41000
H416        H  0.23728916  0.13980758  0.71346783     0.38900
H417        H  0.24201008  0.22310232  0.61722152     0.42000
H418        H  0.26570629  0.28329072  0.61576160     0.36800
H419        H  0.25950960  0.36465319  0.71232342     0.42900
H420        H  0.24034946  0.36664476  0.78595407     0.39300
H421        H  0.24677750  0.13797440  0.67155031     0.44300
H422        H  0.25641059  0.31879853  0.61394845     0.43000
H423        H  0.24785452  0.36693696  0.82903573     0.43100
H424        H  0.25100433  0.19361807  0.88756299     0.43500
C425        C  0.08198405  0.08082051  0.57987131    -0.01400
C426        C  0.10293232  0.08602259  0.55983709    -0.09400
C427        C  0.12087823  0.10479183  0.57549139    -0.18300
C428        C  0.11853623  0.11878550  0.61214616     0.04100
C429        C  0.09745437  0.11272715  0.63272421     0.18300
C430        C  0.07936472  0.09427510  0.61630908    -0.19700
C431        C  0.09454740  0.12506178  0.66961155    -0.20900
C432        C  0.11206773  0.14360691  0.68650091    -0.19500
C433        C  0.13282594  0.15059619  0.66674772     0.19700
C434        C  0.13635929  0.13836635  0.62922464     0.01800
C435        C  0.15757756  0.14633231  0.61045513    -0.14200
C436        C  0.17475150  0.16488485  0.62852940    -0.11900
C437        C  0.17131679  0.17654913  0.66560320     0.01400
C438        C  0.15017119  0.16962773  0.68441906    -0.24100
H439        H  0.10532599  0.07597410  0.53154200     0.09400
H440        H  0.13637293  0.10773833  0.55820268     0.12900
H441        H  0.06328303  0.09006087  0.63214591     0.11700
H442        H  0.07860577  0.12028737  0.68556125     0.12900
H443        H  0.10930163  0.15270144  0.71516346     0.11900
H444        H  0.16150384  0.13858386  0.58181918     0.09000
H445        H  0.19084916  0.17023667  0.61328870     0.12200
H446        H  0.14743579  0.17843708  0.71323746     0.14100
C447        C  0.08158781  0.07957494  0.91491745    -0.01400
C448        C  0.10491099  0.07421202  0.92621743    -0.09400
C449        C  0.12320060  0.09254283  0.91121968    -0.18300
C450        C  0.11882131  0.11713663  0.88419951     0.04100
C451        C  0.09521290  0.12213535  0.87215566     0.18300
C452        C  0.07690578  0.10354118  0.88762900    -0.19700
C453        C  0.09000981  0.14572346  0.84482426    -0.20900
C454        C  0.10778248  0.16455351  0.82919832    -0.19500
C455        C  0.13115718  0.16048825  0.84081846     0.19700
C456        C  0.13701303  0.13685262  0.86865207     0.01800
C457        C  0.16082698  0.13408048  0.87981233    -0.14200
C458        C  0.17811855  0.15339909  0.86340795    -0.11900
C459        C  0.17239465  0.17623600  0.83539403     0.01400
C460        C  0.14876121  0.17984187  0.82455874    -0.24100
H461        H  0.10915436  0.05589001  0.94716988     0.09400
H462        H  0.14055815  0.08676757  0.92144490     0.12900
H463        H  0.05896358  0.10792233  0.87848708     0.11700
H464        H  0.07206915  0.14959286  0.83539331     0.12900
H465        H  0.10319795  0.18250473  0.80795380     0.11900
H466        H  0.16675574  0.11722939  0.90114375     0.09000
H467        H  0.19615181  0.15016811  0.87263731     0.12200
H468        H  0.14401949  0.19744199  0.80298333     0.14100
C469        C  0.08206494  0.42751834  0.58339084    -0.01400
C470        C  0.10540242  0.43154587  0.57155039    -0.09400
C471        C  0.12341687  0.41290425  0.58712480    -0.18300
C472        C  0.11873620  0.38933898  0.61530345     0.04100
C473        C  0.09515248  0.38579856  0.62797001     0.18300
C474        C  0.07714288  0.40471943  0.61196949    -0.19700
C475        C  0.08965332  0.36321581  0.65631953    -0.20900
C476        C  0.10708841  0.34385295  0.67222522    -0.19500
C477        C  0.13043367  0.34639268  0.65995569     0.19700
C478        C  0.13657866  0.36914871  0.63126306     0.01800
C479        C  0.16031486  0.37056100  0.61958761    -0.14200
C480        C  0.17724140  0.35062834  0.63599061    -0.11900
C481        C  0.17129054  0.32848322  0.66464832     0.01400
C482        C  0.14772158  0.32637563  0.67630940    -0.24100
H483        H  0.10983823  0.44895809  0.54966220     0.09400
H484        H  0.14079710  0.41754085  0.57630351     0.12900
H485        H  0.05920169  0.40139748  0.62162216     0.12700
H486        H  0.07172044  0.36046734  0.66623153     0.12900
H487        H  0.10224922  0.32664019  0.69413825     0.11900
H488        H  0.16647418  0.38679713  0.59780510     0.09000
H489        H  0.19522475  0.35288756  0.62621752     0.12200
H490        H  0.14281891  0.30945328  0.69851308     0.14100
C491        C  0.42214982  0.08128273  0.58136488    -0.01400
C492        C  0.42811476  0.10411197  0.60925910    -0.09400
C493        C  0.41093553  0.12293316  0.62667373    -0.18300
C494        C  0.38696124  0.11958579  0.61681212     0.04100
C495        C  0.38091110  0.09633095  0.58861491     0.18300
C496        C  0.39843522  0.07755021  0.57118666    -0.19700
C497        C  0.35739689  0.09191443  0.57802162    -0.20900
C498        C  0.33968069  0.10994390  0.59508088    -0.19500
C499        C  0.34506212  0.13308130  0.62286045     0.19700
C500        C  0.36879744  0.13839699  0.63397109     0.01800
C501        C  0.37330794  0.16240563  0.66168570    -0.14200
C502        C  0.35505832  0.18022581  0.67774106    -0.11900
C503        C  0.33162776  0.17475266  0.66705835     0.01400
C504        C  0.32680460  0.15104185  0.63952471    -0.24100
H505        H  0.44624504  0.10757564  0.61784393     0.09400
H506        H  0.41707371  0.13977990  0.64784400     0.12900
H507        H  0.39354776  0.06008464  0.54954413     0.11700
H508        H  0.35265511  0.07428036  0.55650198     0.12900
H509        H  0.32163249  0.10582812  0.58638262     0.11900
H510        H  0.39074000  0.16816696  0.67158212     0.09000
H511        H  0.35941923  0.19829280  0.69893454     0.12200
H512        H  0.30879033  0.14654847  0.63087124     0.14100
C513        C  0.42184297  0.42461846  0.91670198    -0.01400
C514        C  0.42720522  0.40620215  0.88432139    -0.09400
C515        C  0.41015047  0.38728325  0.86663993    -0.18300
C516        C  0.38695052  0.38594735  0.88091246     0.04100
C517        C  0.38147641  0.40483733  0.91362312     0.18300
C518        C  0.39884840  0.42393433  0.93110136    -0.19700
C519        C  0.35870147  0.40455503  0.92869245    -0.20900
C520        C  0.34113243  0.38615076  0.91172773    -0.19500
C521        C  0.34595133  0.36739088  0.87945215     0.19700
C522        C  0.36898477  0.36673186  0.86377462     0.01800
C523        C  0.37300741  0.34687533  0.83160182    -0.14200
C524        C  0.35486620  0.32891436  0.81537802    -0.11900
C525        C  0.33210067  0.33008788  0.83047621     0.01400
C526        C  0.32780543  0.34932422  0.86266511    -0.24100
H527        H  0.44475289  0.40645536  0.87233668     0.09400
H528        H  0.41575321  0.37409201  0.84178961     0.12900
H529        H  0.39450135  0.43796755  0.95624684     0.11700
H530        H  0.35440732  0.41881851  0.95366000     0.12900
H531        H  0.32363133  0.38662827  0.92392310     0.11900
H532        H  0.38994830  0.34462971  0.81818884     0.09000
H533        H  0.35869156  0.31431987  0.79049198     0.12200
H534        H  0.31029590  0.35019450  0.87483679     0.14100
C535        C  0.42207292  0.07992250  0.91453263    -0.01400
C536        C  0.42713849  0.09727569  0.88120403    -0.09400
C537        C  0.40998582  0.11598839  0.86340358    -0.18300
C538        C  0.38702585  0.11818917  0.87855856     0.04100
C539        C  0.38190334  0.10038721  0.91226427     0.18300
C540        C  0.39932857  0.08144358  0.92976608    -0.19700
C541        C  0.35944350  0.10169135  0.92842556    -0.20900
C542        C  0.34182444  0.12009952  0.91163575    -0.19500
C543        C  0.34627577  0.13782032  0.87841456     0.19700
C544        C  0.36898609  0.13735802  0.86151471     0.01800
C545        C  0.37263314  0.15618986  0.82836831    -0.14200
C546        C  0.35448663  0.17450027  0.81264367    -0.11900
C547        C  0.33207177  0.17460824  0.82915811     0.01400
C548        C  0.32810289  0.15610926  0.86203939    -0.24100
H549        H  0.44451693  0.09637254  0.86862556     0.09400
H550        H  0.41532655  0.12841447  0.83785146     0.12900
H551        H  0.39524701  0.06828103  0.95568189     0.11700
H552        H  0.35544906  0.08829577  0.95419162     0.12900
H553        H  0.32458248  0.12049997  0.92476654     0.11900
H554        H  0.38929220  0.15741105  0.81387681     0.09000
H555        H  0.35802196  0.18841741  0.78710503     0.12200
H556        H  0.31086478  0.15617440  0.87522806     0.14100
C557        C  0.17262169  0.33169276  0.83269305    -0.01400
C558        C  0.17815349  0.36243002  0.84674932    -0.09400
C559        C  0.16089249  0.38212217  0.86267333    -0.18300
C560        C  0.13731734  0.37162931  0.86538773     0.04100
C561        C  0.13183479  0.34017658  0.85176425     0.18300
C562        C  0.14937939  0.32069180  0.83541468    -0.19700
C563        C  0.10885945  0.32835630  0.85448842    -0.20900
C564        C  0.09114454  0.34711066  0.87039446    -0.19500
C565        C  0.09591948  0.37823533  0.88378216     0.19700
C566        C  0.11904058  0.39107271  0.88133700     0.01800
C567        C  0.12281761  0.42275545  0.89509722    -0.14200
C568        C  0.10456834  0.44048204  0.91152325    -0.11900
C569        C  0.08189669  0.42752278  0.91436059     0.01400
C570        C  0.07767781  0.39649257  0.89996070    -0.24100
H571        H  0.19593425  0.37166014  0.84488508     0.09400
H572        H  0.16662670  0.40540907  0.87260380     0.12900
H573        H  0.14492510  0.29685713  0.82492072     0.11700
H574        H  0.10455913  0.30438582  0.84431125     0.12900
H575        H  0.07355471  0.33718198  0.87222968     0.11900
H576        H  0.13967464  0.43452607  0.89378394     0.09000
H577        H  0.10824902  0.46453697  0.92201653     0.12200
H578        H  0.06021467  0.38616110  0.90209611     0.14100
C579        C  0.42154281  0.42577547  0.58227806    -0.01400
C580        C  0.39801727  0.43286900  0.57360930    -0.09400
C581        C  0.37968362  0.41493853  0.58934181    -0.18300
C582        C  0.38419811  0.38894447  0.61442593     0.04100
C583        C  0.40804077  0.38186718  0.62339665     0.18300
C584        C  0.42636034  0.40024052  0.60746276    -0.19700
C585        C  0.41348983  0.35630678  0.64798259    -0.20900
C586        C  0.39576842  0.33747104  0.66376487    -0.19500
C587        C  0.37212991  0.34377812  0.65549676     0.19700
C588        C  0.36596736  0.36963993  0.63075869     0.01800
C589        C  0.34182528  0.37498944  0.62344864    -0.14200
C590        C  0.32461208  0.35565684  0.64013619    -0.11900
C591        C  0.33070945  0.33031891  0.66477394     0.01400
C592        C  0.35459858  0.32443898  0.67207953    -0.24100
H593        H  0.39363167  0.45235739  0.55427697     0.09400
H594        H  0.36218365  0.42198171  0.58103787     0.12900
H595        H  0.44443452  0.39436067  0.61446688     0.11700
H596        H  0.43161526  0.35075430  0.65496433     0.12900
H597        H  0.40059826  0.31782665  0.68262957     0.11900
H598        H  0.33558836  0.39400707  0.60510669     0.09000
H599        H  0.30635114  0.36089334  0.63385795     0.12200
H600        H  0.35963218  0.30494307  0.69103524     0.14100
O601        O  0.46188866  0.93683931  0.42746010    -0.75400
O602        O  0.43429675  0.96618185  0.45939188    -0.54300
C603        C  0.44046234  0.94385461  0.43593683     0.78300
O604        O  0.04142391  0.93950891  0.07460688    -0.60000
O605        O  0.06848237  0.96762376  0.04008361    -0.53000
C606        C  0.06272643  0.94626185  0.06505581     0.70300
O607        O  0.46227118  0.93704812  0.07297788    -0.74600
O608        O  0.43507317  0.96695379  0.04080119    -0.55100
C609        C  0.44090839  0.94448956  0.06435538     0.76300
O610        O  0.04131420  0.93774887  0.42495515    -0.59700
O611        O  0.06859398  0.96782830  0.45677704    -0.52800
C612        C  0.06268023  0.94558962  0.43302700     0.72900
Zr613      Zr  0.50158308  0.95484269  0.44275890     2.54700
O614        O  0.50239635  0.89617725  0.44336051    -0.80300
O615        O  0.00122521  0.95768907  0.37318386    -0.93700
Zr616      Zr  0.50170337  0.95602842  0.05685439     2.64700
O617        O  0.50181383  0.89738241  0.06035305    -0.98600
O618        O  0.00100683  0.96045132  0.12591611    -0.80700
O619        O  0.47915664  0.95481502  0.49980745    -0.84100
O620        O  0.02409724  0.95456562  0.49967091    -2.18800
O621        O  0.04108943  0.56773870  0.42353539    -0.67400
O622        O  0.06817644  0.53873305  0.45705652    -0.52000
C623        C  0.06240137  0.56062815  0.43279040     0.71300
O624        O  0.46225147  0.56890113  0.07091794    -0.60400
O625        O  0.43458242  0.53947633  0.03920454    -0.52300
C626        C  0.44078941  0.56180722  0.06264156     0.73100
O627        O  0.04151874  0.56845350  0.07280357    -0.71800
O628        O  0.06851036  0.54052698  0.03781168    -0.50400
C629        C  0.06275967  0.56197502  0.06262147     0.74500
O630        O  0.46218105  0.56780509  0.42461977    -0.67100
O631        O  0.43474528  0.53948941  0.45815017    -0.54300
C632        C  0.44082710  0.56111390  0.43369970     0.72900
Zr633      Zr  0.00158338  0.55011440  0.44113622     2.77500
O634        O  0.00086203  0.60883934  0.43838097    -0.97800
O635        O  0.00083988  0.54434513  0.37197423    -0.78600
Zr636      Zr  0.00186003  0.55140369  0.05508481     2.70100
O637        O  0.00254240  0.61008856  0.05387337    -0.79900
O638        O  0.00133362  0.55011025  0.12460027    -0.99000
Zr639      Zr  0.45661254  0.50294359  0.99891273     2.21500
Zr640      Zr  0.04646137  0.00304396  0.49850494     2.11100
O641        O  0.02404195  0.55164598  0.99799151    -2.47700
O642        O  0.47914974  0.55122797  0.99809163    -0.79700
O643        O  0.02457634  0.00248399  0.44064296    -0.71900
O644        O  0.47880489  0.50360375  0.05679891    -2.32800
O645        O  0.47857600  0.50227022  0.44104043    -2.29100
O646        O  0.02486617  0.00371803  0.05673500    -0.73600
H647        H  0.03429342  0.93601416  0.99972098     0.78400
H648        H  0.46862775  0.50386163  0.07885119     0.79400
H649        H  0.03410858  0.57026476  0.49770410     0.81700
H650        H  0.46827690  0.50203373  0.41909455     0.79300
H651        H  0.50657534  0.94090379  0.13589133     0.42300
H652        H  0.01371909  0.53438546  0.13160556     0.41300
H653        H  0.50182104  0.61565064  0.02684260     0.41000
H654        H  0.01405291  0.61588232  0.45487524     0.38900
H655        H  0.01489147  0.53119240  0.36599115     0.42000
H656        H  0.48477354  0.96276086  0.36629036     0.36800
H657        H  0.49523762  0.89023540  0.46813497     0.42900
H658        H  0.01513874  0.89086310  0.04197489     0.39300
H659        H  0.00596929  0.61418133  0.41211980     0.44300
H660        H  0.50308376  0.93457013  0.36500696     0.43000
H661        H  0.50809373  0.89232630  0.08604458     0.43100
H662        H  0.00779962  0.57126882  0.13243831     0.43500
O663        O  0.29060514  0.81781455  0.17520300    -0.75400
O664        O  0.31838904  0.78872029  0.20702181    -0.54300
C665        C  0.31210547  0.81086847  0.18337949     0.78300
O666        O  0.21266579  0.81918488  0.32230579    -0.60000
O667        O  0.18479386  0.78898777  0.29206648    -0.53000
C668        C  0.19118501  0.81168955  0.31492997     0.70300
O669        O  0.29149499  0.81962217  0.32097497    -0.74600
O670        O  0.31853463  0.78955602  0.28879700    -0.55100
C671        C  0.31276482  0.81202529  0.31229955     0.76300
O672        O  0.21138784  0.81533172  0.17360128    -0.59700
O673        O  0.18399384  0.78832585  0.20863729    -0.52800
C674        C  0.19000686  0.80923056  0.18327001     0.72900
Zr675      Zr  0.25113276  0.79942695  0.19137072     2.54700
O676        O  0.24976207  0.85807238  0.18941025    -0.80300
O677        O  0.25153700  0.79665018  0.12193355    -0.93700
Zr678      Zr  0.25197911  0.80168409  0.30471570     2.64700
O679        O  0.25286912  0.86035620  0.30286179    -0.98600
O680        O  0.25164590  0.80182669  0.37419745    -0.80700
O681        O  0.27423664  0.80143412  0.24762027    -0.84100
O682        O  0.22885192  0.80133175  0.24840151    -2.18800
O683        O  0.21148312  0.68834134  0.17558894    -0.67400
O684        O  0.18414660  0.71629433  0.20997586    -0.52000
C685        C  0.19013320  0.69511241  0.18495821     0.71300
O686        O  0.29162135  0.68699185  0.32156204    -0.60400
O687        O  0.31867769  0.71645148  0.28860791    -0.52300
C688        C  0.31289890  0.69401357  0.31213679     0.73100
O689        O  0.21260122  0.68859858  0.32524910    -0.71800
O690        O  0.18489264  0.71730707  0.29264744    -0.50400
C691        C  0.19111608  0.69554743  0.31683926     0.74500
O692        O  0.29099257  0.68594236  0.17700025    -0.67100
O693        O  0.31829211  0.71626003  0.20838507    -0.54300
C694        C  0.31239085  0.69357373  0.18523061     0.72900
Zr695      Zr  0.25136153  0.70399511  0.19385153     2.77500
O696        O  0.25129474  0.64532657  0.19737824    -0.97800
O697        O  0.25231081  0.70503585  0.12436412    -0.78600
Zr698      Zr  0.25202996  0.70645029  0.30768489     2.70100
O699        O  0.25267480  0.64814553  0.31559010    -0.79900
O700        O  0.25354384  0.71554579  0.37633183    -0.99000
Zr701      Zr  0.29651750  0.75298787  0.24859649     2.21500
Zr702      Zr  0.20637910  0.75282527  0.25024441     2.11100
O703        O  0.22909846  0.70445465  0.25106543    -2.47700
O704        O  0.27415800  0.70468497  0.25044189    -0.79700
O705        O  0.22822014  0.75163726  0.19214803    -0.71900
O706        O  0.27504591  0.75404812  0.30698727    -2.32800
O707        O  0.27414980  0.75178189  0.19107262    -2.29100
O708        O  0.22891116  0.75404341  0.30765512    -0.73600
H709        H  0.21880968  0.82010672  0.24800920     0.78400
H710        H  0.28546529  0.75438464  0.32879090     0.79400
H711        H  0.21908026  0.68567547  0.25158520     0.81700
H712        H  0.28427830  0.75141656  0.16898376     0.79300
H713        H  0.26728881  0.79351015  0.38172147     0.42300
H714        H  0.23907313  0.72789868  0.38209229     0.41300
H715        H  0.25014922  0.63959839  0.28951127     0.41000
H716        H  0.23770243  0.63987847  0.21379034     0.38900
H717        H  0.24136537  0.72260571  0.11721701     0.42000
H718        H  0.26554742  0.78348958  0.11562009     0.36800
H719        H  0.25985111  0.86503358  0.21095174     0.42900
H720        H  0.23947617  0.86653818  0.28631185     0.39300
H721        H  0.24658218  0.63817705  0.17150860     0.44300
H722        H  0.25573795  0.81873823  0.11371237     0.43000
H723        H  0.24809561  0.86710267  0.32883635     0.43100
H724        H  0.25075754  0.69401485  0.38765872     0.43500
C725        C  0.08191877  0.58100023  0.08010664    -0.01400
C726        C  0.10282519  0.58632444  0.06000741    -0.09400
C727        C  0.12074851  0.60514905  0.07562770    -0.18300
C728        C  0.11843084  0.61907733  0.11231833     0.04100
C729        C  0.09740700  0.61287148  0.13299015     0.18300
C730        C  0.07932551  0.59438106  0.11659516    -0.19700
C731        C  0.09456571  0.62506645  0.16996008    -0.20900
C732        C  0.11211227  0.64356543  0.18685909    -0.19500
C733        C  0.13281009  0.65069754  0.16700651     0.19700
C734        C  0.13624652  0.63868438  0.12936353     0.01800
C735        C  0.15736936  0.64687269  0.11044285    -0.14200
C736        C  0.17457631  0.66536388  0.12851306    -0.11900
C737        C  0.17125115  0.67677905  0.16571292     0.01400
C738        C  0.15018872  0.66966822  0.18467978    -0.24100
H739        H  0.10520223  0.57632565  0.03168448     0.09400
H740        H  0.13622050  0.60815625  0.05830032     0.12900
H741        H  0.06328073  0.59006151  0.13249022     0.11700
H742        H  0.07867017  0.62018209  0.18598390     0.12900
H743        H  0.10941255  0.65251588  0.21560254     0.11900
H744        H  0.16118806  0.63936551  0.08167883     0.09000
H745        H  0.19060388  0.67088869  0.11316429     0.12200
H746        H  0.14754175  0.67830106  0.21359566     0.14100
C747        C  0.08168438  0.57945355  0.41513642    -0.01400
C748        C  0.10500843  0.57425644  0.42656651    -0.09400
C749        C  0.12326822  0.59270578  0.41164207    -0.18300
C750        C  0.11885571  0.61725653  0.38457365     0.04100
C751        C  0.09525212  0.62208325  0.37241073     0.18300
C752        C  0.07697977  0.60337864  0.38781082    -0.19700
C753        C  0.09001613  0.64560032  0.34501066    -0.20900
C754        C  0.10775412  0.66449475  0.32938376    -0.19500
C755        C  0.13112749  0.66059064  0.34109390     0.19700
C756        C  0.13700871  0.63707335  0.36905801     0.01800
C757        C  0.16080863  0.63450775  0.38036067    -0.14200
C758        C  0.17807325  0.65385878  0.36391586    -0.11900
C759        C  0.17234049  0.67653064  0.33571364     0.01400
C760        C  0.14870670  0.67997483  0.32478316    -0.24100
H761        H  0.10927273  0.55597351  0.44755627     0.09400
H762        H  0.14063175  0.58704831  0.42193894     0.12900
H763        H  0.05904109  0.60764059  0.37857404     0.11700
H764        H  0.07207725  0.64934374  0.33549902     0.12900
H765        H  0.10314340  0.68236371  0.30805764     0.11900
H766        H  0.16674341  0.61778996  0.40183601     0.09000
H767        H  0.19609899  0.65076951  0.37324967     0.12200
H768        H  0.14395007  0.69745389  0.30307880     0.14100
C769        C  0.08191983  0.92751491  0.08336272    -0.01400
C770        C  0.10522768  0.93147943  0.07133497    -0.09400
C771        C  0.12328221  0.91287594  0.08686880    -0.18300
C772        C  0.11866957  0.88939109  0.11517169     0.04100
C773        C  0.09509790  0.88581298  0.12789399     0.18300
C774        C  0.07705251  0.90470254  0.11194782    -0.19700
C775        C  0.08964053  0.86322047  0.15624870    -0.20900
C776        C  0.10709851  0.84387419  0.17209979    -0.19500
C777        C  0.13043461  0.84647127  0.15981658     0.19700
C778        C  0.13655424  0.86927118  0.13115779     0.01800
C779        C  0.16030271  0.87078004  0.11954865    -0.14200
C780        C  0.17724484  0.85082949  0.13591613    -0.11900
C781        C  0.17130039  0.82860856  0.16451033     0.01400
C782        C  0.14773190  0.82645335  0.17613266    -0.24100
H783        H  0.10961074  0.94883428  0.04935513     0.09400
H784        H  0.14063651  0.91745675  0.07590345     0.12900
H785        H  0.05912837  0.90136630  0.12167654     0.12700
H786        H  0.07171740  0.86043390  0.16619078     0.12900
H787        H  0.10228404  0.82663109  0.19399336     0.11900
H788        H  0.16645651  0.88712078  0.09786865     0.09000
H789        H  0.19523470  0.85315367  0.12619506     0.12200
H790        H  0.14283307  0.80948654  0.19828997     0.14100
C791        C  0.42210712  0.58105351  0.08139573    -0.01400
C792        C  0.42806039  0.60377146  0.10942776    -0.09400
C793        C  0.41088696  0.62261216  0.12686926    -0.18300
C794        C  0.38691696  0.61942533  0.11689677     0.04100
C795        C  0.38085432  0.59622850  0.08863638     0.18300
C796        C  0.39837611  0.57740850  0.07118789    -0.19700
C797        C  0.35733274  0.59193766  0.07798086    -0.20900
C798        C  0.33963581  0.61004750  0.09500724    -0.19500
C799        C  0.34503381  0.63314785  0.12282875     0.19700
C800        C  0.36877136  0.63833940  0.13400918     0.01800
C801        C  0.37330186  0.66233842  0.16173673    -0.14200
C802        C  0.35506798  0.68020763  0.17780655    -0.11900
C803        C  0.33162734  0.67481860  0.16711058     0.01400
C804        C  0.32679177  0.65117347  0.13948669    -0.24100
H805        H  0.44618533  0.60714492  0.11808826     0.09400
H806        H  0.41702459  0.63936242  0.14814781     0.12900
H807        H  0.39347813  0.56000940  0.04947723     0.11700
H808        H  0.35256929  0.57434583  0.05642597     0.12900
H809        H  0.32158731  0.60602093  0.08625043     0.11900
H810        H  0.39074355  0.66804543  0.17163543     0.09000
H811        H  0.35944777  0.69824035  0.19903079     0.12200
H812        H  0.30877653  0.64676227  0.13077977     0.14100
C813        C  0.42181135  0.92460099  0.41718499    -0.01400
C814        C  0.42710712  0.90642543  0.38459321    -0.09400
C815        C  0.41003392  0.88756834  0.36687544    -0.18300
C816        C  0.38687690  0.88606426  0.38130854     0.04100
C817        C  0.38146911  0.90469198  0.41425691     0.18300
C818        C  0.39887028  0.92370052  0.43180575    -0.19700
C819        C  0.35871795  0.90429569  0.42942588    -0.20900
C820        C  0.34109829  0.88609199  0.41227623    -0.19500
C821        C  0.34585597  0.86758773  0.37976310     0.19700
C822        C  0.36888066  0.86697904  0.36405100     0.01800
C823        C  0.37287054  0.84729992  0.33171697    -0.14200
C824        C  0.35470996  0.82946804  0.31535879    -0.11900
C825        C  0.33195196  0.83058642  0.33047596     0.01400
C826        C  0.32767466  0.84968500  0.36280186    -0.24100
H827        H  0.44460871  0.90685693  0.37243936     0.09400
H828        H  0.41557747  0.87461132  0.34181937     0.12900
H829        H  0.39457816  0.93754785  0.45712085     0.11700
H830        H  0.35447238  0.91835743  0.45457586     0.12900
H831        H  0.32361043  0.88651259  0.42452398     0.11900
H832        H  0.38981232  0.84505464  0.31830945     0.09000
H833        H  0.35852317  0.81497649  0.29038423     0.12200
H834        H  0.31017022  0.85050941  0.37499752     0.14100
C835        C  0.42212416  0.57995340  0.41455428    -0.01400
C836        C  0.42717338  0.59731023  0.38121490    -0.09400
C837        C  0.40999520  0.61595837  0.36337489    -0.18300
C838        C  0.38703734  0.61814349  0.37853983     0.04100
C839        C  0.38192195  0.60029887  0.41221772     0.18300
C840        C  0.39936720  0.58140428  0.42974581    -0.19700
C841        C  0.35945207  0.60153207  0.42834600    -0.20900
C842        C  0.34182789  0.61995471  0.41159048    -0.19500
C843        C  0.34628474  0.63777966  0.37844768     0.19700
C844        C  0.36899973  0.63736915  0.36156335     0.01800
C845        C  0.37266384  0.65635793  0.32854631    -0.14200
C846        C  0.35451975  0.67473243  0.31289852    -0.11900
C847        C  0.33208716  0.67475545  0.32935918     0.01400
C848        C  0.32811437  0.65613323  0.36214862    -0.24100
H849        H  0.44455443  0.59644809  0.36864253     0.09400
H850        H  0.41531252  0.62835440  0.33778795     0.12900
H851        H  0.39528658  0.56821892  0.45564554     0.11700
H852        H  0.35545768  0.58808701  0.45407605     0.12900
H853        H  0.32458258  0.62031065  0.42471013     0.11900
H854        H  0.38934022  0.65766727  0.31411558     0.09000
H855        H  0.35806940  0.68875800  0.28744931     0.12200
H856        H  0.31087114  0.65614027  0.37531856     0.14100
C857        C  0.17273025  0.83141967  0.33341324    -0.01400
C858        C  0.17826402  0.86210592  0.34763392    -0.09400
C859        C  0.16098327  0.88176862  0.36354459    -0.18300
C860        C  0.13739434  0.87129257  0.36604090     0.04100
C861        C  0.13194622  0.83983426  0.35240274     0.18300
C862        C  0.14950961  0.82037563  0.33610964    -0.19700
C863        C  0.10897016  0.82800674  0.35495443    -0.20900
C864        C  0.09119695  0.84679474  0.37060667    -0.19500
C865        C  0.09592020  0.87795059  0.38392491     0.19700
C866        C  0.11905827  0.89077078  0.38172626     0.01800
C867        C  0.12278212  0.92248402  0.39541034    -0.14200
C868        C  0.10446587  0.94023686  0.41158204    -0.11900
C869        C  0.08178386  0.92727582  0.41421839     0.01400
C870        C  0.07760860  0.89624585  0.39981705    -0.24100
H871        H  0.19604738  0.87134044  0.34584711     0.09400
H872        H  0.16670142  0.90503323  0.37357723     0.12900
H873        H  0.14507339  0.79655789  0.32554078     0.11700
H874        H  0.10470657  0.80402192  0.34478425     0.12900
H875        H  0.07359881  0.83687455  0.37227733     0.11900
H876        H  0.13964604  0.93424989  0.39424616     0.09000
H877        H  0.10810734  0.96430220  0.42207898     0.12200
H878        H  0.06013462  0.88592632  0.40179651     0.14100
C879        C  0.42161814  0.92567954  0.08233111    -0.01400
C880        C  0.39810984  0.93261435  0.07342139    -0.09400
C881        C  0.37978741  0.91461347  0.08903364    -0.18300
C882        C  0.38429684  0.88869336  0.11422140     0.04100
C883        C  0.40812181  0.88183233  0.12354152     0.18300
C884        C  0.42643760  0.90026752  0.10770089    -0.19700
C885        C  0.41354790  0.85645089  0.14840525    -0.20900
C886        C  0.39581117  0.83765116  0.16421280    -0.19500
C887        C  0.37218938  0.84375428  0.15558921     0.19700
C888        C  0.36606502  0.86931623  0.13039946     0.01800
C889        C  0.34195420  0.87430300  0.12248029    -0.14200
C890        C  0.32471705  0.85506048  0.13923004    -0.11900
C891        C  0.33076002  0.83015628  0.16450587     0.01400
C892        C  0.35463095  0.82451868  0.17226079    -0.24100
H893        H  0.39372838  0.95202817  0.05398206     0.09400
H894        H  0.36229771  0.92159017  0.08060491     0.12900
H895        H  0.44450459  0.89454713  0.11494036     0.11700
H896        H  0.43166031  0.85105632  0.15564917     0.12900
H897        H  0.40061385  0.81819560  0.18336872     0.11900
H898        H  0.33575406  0.89294104  0.10357027     0.09000
H899        H  0.30647818  0.86002542  0.13248886     0.12200
H900        H  0.35962600  0.80530825  0.19164673     0.14100
O901        O  0.46190175  0.93664904  0.92746298    -0.75400
O902        O  0.43431462  0.96615849  0.95918884    -0.54300
C903        C  0.44047367  0.94376146  0.93581611     0.78300
O904        O  0.04150010  0.93943876  0.57446246    -0.60000
O905        O  0.06858119  0.96741995  0.53985432    -0.53000
C906        C  0.06280722  0.94612437  0.56487195     0.70300
O907        O  0.46219262  0.93718712  0.57297743    -0.74600
O908        O  0.43499109  0.96701477  0.54071489    -0.55100
C909        C  0.44081852  0.94457237  0.56429631     0.76300
O910        O  0.04137586  0.93811772  0.92499945    -0.59700
O911        O  0.06867036  0.96838506  0.95653501    -0.52800
C912        C  0.06274222  0.94607838  0.93289478     0.72900
Zr913      Zr  0.50156257  0.95476774  0.94281330     2.54700
O914        O  0.50257503  0.89611470  0.94375533    -0.80300
O915        O  0.00124855  0.95598007  0.87308685    -0.93700
Zr916      Zr  0.50169810  0.95609317  0.55685714     2.64700
O917        O  0.50172208  0.89744951  0.55992562    -0.98600
O918        O  0.00119766  0.96231127  0.62596168    -0.80700
O919        O  0.47912162  0.95473871  0.99983354    -0.84100
O920        O  0.02415731  0.95468911  0.99955091    -2.18800
O921        O  0.04101191  0.56800691  0.92370338    -0.67400
O922        O  0.06808563  0.53891257  0.95711962    -0.52000
C923        C  0.06231332  0.56083891  0.93290060     0.71300
O924        O  0.46227833  0.56894226  0.57104480    -0.60400
O925        O  0.43462201  0.53955960  0.53925772    -0.52300
C926        C  0.44082524  0.56188841  0.56270226     0.73100
O927        O  0.04146016  0.56839163  0.57265680    -0.71800
O928        O  0.06846860  0.54046749  0.53766463    -0.50400
C929        C  0.06270372  0.56191521  0.56247370     0.74500
O930        O  0.46214534  0.56791310  0.92461035    -0.67100
O931        O  0.43469883  0.53935195  0.95783967    -0.54300
C932        C  0.44078107  0.56108977  0.93352663     0.72900
Zr933      Zr  0.00155773  0.55015624  0.94106293     2.77500
O934        O  0.00083708  0.60879570  0.93670119    -0.97800
O935        O  0.00093499  0.54377841  0.87195566    -0.78600
Zr936      Zr  0.00181467  0.55128920  0.55497710     2.70100
O937        O  0.00228129  0.60999393  0.55472078    -0.79900
O938        O  0.00120462  0.54885706  0.62442438    -0.99000
Zr939      Zr  0.45663622  0.50293507  0.49904504     2.21500
Zr940      Zr  0.04643773  0.00323481  0.99848564     2.11100
O941        O  0.02409953  0.55147470  0.49797528    -2.47700
O942        O  0.47917284  0.55119877  0.49819154    -0.79700
O943        O  0.02452529  0.00257490  0.94060278    -0.71900
O944        O  0.47878058  0.50360127  0.55697485    -2.32800
O945        O  0.47860358  0.50234953  0.94095998    -2.29100
O946        O  0.02492668  0.00371001  0.55676574    -0.73600
H947        H  0.03417680  0.93583217  0.49985544     0.78400
H948        H  0.46859849  0.50384389  0.57902253     0.79400
H949        H  0.03404612  0.57044095  0.99772627     0.81700
H950        H  0.46831590  0.50210893  0.91900147     0.79300
H951        H  0.50802218  0.94096657  0.63564544     0.42300
H952        H  0.01381859  0.53337843  0.63111452     0.41300
H953        H  0.50268696  0.61575935  0.52739229     0.41000
H954        H  0.01376959  0.61617569  0.95352505     0.38900
H955        H  0.01358282  0.52802573  0.86654182     0.42000
H956        H  0.48459150  0.96308880  0.86651140     0.36800
H957        H  0.49546066  0.89022998  0.96858272     0.42900
H958        H  0.01426436  0.89051809  0.54301389     0.39300
H959        H  0.00633197  0.61365384  0.91051360     0.44300
H960        H  0.50257462  0.93450853  0.86505468     0.43000
H961        H  0.50708141  0.89230596  0.58613503     0.43100
H962        H  0.00734541  0.57006330  0.63275081     0.43500
O963        O  0.29049190  0.81776451  0.67525631    -0.75400
O964        O  0.31831095  0.78855150  0.70683866    -0.54300
C965        C  0.31200251  0.81077263  0.68330645     0.78300
O966        O  0.21259378  0.81923296  0.82236573    -0.60000
O967        O  0.18470829  0.78902515  0.79215397    -0.53000
C968        C  0.19110351  0.81175113  0.81499712     0.70300
O969        O  0.29138860  0.81970797  0.82100884    -0.74600
O970        O  0.31840177  0.78956778  0.78885215    -0.55100
C971        C  0.31264880  0.81204566  0.81235975     0.76300
O972        O  0.21136338  0.81542681  0.67373647    -0.59700
O973        O  0.18395416  0.78823520  0.70854448    -0.52800
C974        C  0.18998235  0.80923754  0.68329490     0.72900
Zr975      Zr  0.25104606  0.79930244  0.69142760     2.54700
O976        O  0.24965721  0.85794197  0.68989444    -0.80300
O977        O  0.25143566  0.79648423  0.62199864    -0.93700
Zr978      Zr  0.25190793  0.80169704  0.80470174     2.64700
O979        O  0.25260480  0.86039953  0.80295070    -0.98600
O980        O  0.25192841  0.80109735  0.87416839    -0.80700
O981        O  0.27418690  0.80138961  0.74760898    -0.84100
O982        O  0.22875881  0.80125401  0.74842920    -2.18800
O983        O  0.21141499  0.68823089  0.67566604    -0.67400
O984        O  0.18407528  0.71618947  0.71004410    -0.52000
C985        C  0.19006147  0.69500807  0.68501807     0.71300
O986        O  0.29154418  0.68702203  0.82161324    -0.60400
O987        O  0.31860664  0.71653747  0.78873170    -0.52300
C988        C  0.31282112  0.69408438  0.81223044     0.73100
O989        O  0.21254807  0.68844532  0.82517707    -0.71800
O990        O  0.18482690  0.71717274  0.79263244    -0.50400
C991        C  0.19106468  0.69537420  0.81676172     0.74500
O992        O  0.29096622  0.68582707  0.67714928    -0.67100
O993        O  0.31826577  0.71618025  0.70849370    -0.54300
C994        C  0.31236890  0.69346830  0.68537329     0.72900
Zr995      Zr  0.25129541  0.70385742  0.69396899     2.77500
O996        O  0.25105316  0.64519367  0.69771294    -0.97800
O997        O  0.25217985  0.70475358  0.62447839    -0.78600
Zr998      Zr  0.25194721  0.70645012  0.80775317     2.70100
O999        O  0.25241045  0.64813389  0.81560506    -0.79900
O1000       O  0.25330054  0.71543859  0.87643387    -0.99000
Zr1001     Zr  0.29645275  0.75294451  0.74859403     2.21500
Zr1002     Zr  0.20627792  0.75278093  0.75031685     2.11100
O1003       O  0.22902092  0.70443412  0.75115817    -2.47700
O1004       O  0.27411049  0.70461275  0.75054032    -0.79700
O1005       O  0.22814133  0.75150223  0.69225482    -0.71900
O1006       O  0.27495970  0.75405002  0.80693792    -2.32800
O1007       O  0.27405752  0.75166072  0.69111792    -2.29100
O1008       O  0.22883656  0.75406406  0.80769709    -0.73600
H1009       H  0.21872011  0.82003239  0.74802559     0.78400
H1010       H  0.28538535  0.75439200  0.82873174     0.79400
H1011       H  0.21900849  0.68565106  0.75168668     0.81700
H1012       H  0.28417494  0.75128719  0.66901664     0.79300
H1013       H  0.26747324  0.79223583  0.88135197     0.42300
H1014       H  0.23881157  0.72777373  0.88213010     0.41300
H1015       H  0.25129893  0.63961918  0.78925562     0.41000
H1016       H  0.23745086  0.63986115  0.71415688     0.38900
H1017       H  0.24157803  0.72271633  0.61733442     0.42000
H1018       H  0.26535245  0.78313135  0.61570441     0.36800
H1019       H  0.25882129  0.86475427  0.71256249     0.42900
H1020       H  0.23906976  0.86654405  0.78668678     0.39300
H1021       H  0.24630652  0.63800285  0.67187515     0.44300
H1022       H  0.25579792  0.81850944  0.61376616     0.43000
H1023       H  0.24801431  0.86708795  0.82903361     0.43100
H1024       H  0.25048837  0.69388890  0.88769542     0.43500
C1025       C  0.08185831  0.58092614  0.57998695    -0.01400
C1026       C  0.10280387  0.58616109  0.55996479    -0.09400
C1027       C  0.12074393  0.60491923  0.57564487    -0.18300
C1028       C  0.11839791  0.61888944  0.61230987     0.04100
C1029       C  0.09732340  0.61279586  0.63289225     0.18300
C1030       C  0.07923484  0.59434694  0.61645009    -0.19700
C1031       C  0.09442688  0.62509619  0.66980207    -0.20900
C1032       C  0.11194482  0.64365499  0.68669248    -0.19500
C1033       C  0.13269064  0.65069011  0.66691963     0.19700
C1034       C  0.13621312  0.63848514  0.62938398     0.01800
C1035       C  0.15741320  0.64649421  0.61058572    -0.14200
C1036       C  0.17459092  0.66504428  0.62864791    -0.11900
C1037       C  0.17117594  0.67668046  0.66573413     0.01400
C1038       C  0.15003767  0.66973699  0.68457642    -0.24100
H1039       H  0.10520350  0.57613804  0.53165871     0.09400
H1040       H  0.13623911  0.60787356  0.55836122     0.12900
H1041       H  0.06315570  0.59010542  0.63228325     0.11700
H1042       H  0.07849479  0.62028988  0.68576375     0.12900
H1043       H  0.10918595  0.65272607  0.71536759     0.11900
H1044       H  0.16132561  0.63878151  0.58193241     0.09000
H1045       H  0.19067708  0.67041775  0.61338642     0.12200
H1046       H  0.14731383  0.67853163  0.71340402     0.14100
C1047       C  0.08159165  0.57956521  0.91515804    -0.01400
C1048       C  0.10492728  0.57413850  0.92634669    -0.09400
C1049       C  0.12321136  0.59242110  0.91125381    -0.18300
C1050       C  0.11880248  0.61705422  0.88429743     0.04100
C1051       C  0.09518461  0.62206168  0.87231107     0.18300
C1052       C  0.07688808  0.60351439  0.88786836    -0.19700
C1053       C  0.08995888  0.64561841  0.84495837    -0.20900
C1054       C  0.10771913  0.66442659  0.82926927    -0.19500
C1055       C  0.13109576  0.66040931  0.84090004     0.19700
C1056       C  0.13697105  0.63681567  0.86877190     0.01800
C1057       C  0.16077109  0.63418039  0.88005213    -0.14200
C1058       C  0.17804026  0.65355776  0.86367719    -0.11900
C1059       C  0.17230622  0.67630067  0.83555745     0.01400
C1060       C  0.14867884  0.67979532  0.82464133    -0.24100
H1061       H  0.10918639  0.55578869  0.94725703     0.09400
H1062       H  0.14058855  0.58657247  0.92133556     0.12900
H1063       H  0.05893710  0.60791768  0.87878590     0.11700
H1064       H  0.07201069  0.64947963  0.83555978     0.12900
H1065       H  0.10311948  0.68235235  0.80800388     0.11900
H1066       H  0.16669713  0.61742271  0.90149100     0.09000
H1067       H  0.19606514  0.65044177  0.87300414     0.12200
H1068       H  0.14392531  0.69734200  0.80301230     0.14100
C1069       C  0.08198428  0.92742710  0.58323780    -0.01400
C1070       C  0.10530410  0.93145872  0.57130756    -0.09400
C1071       C  0.12334542  0.91286458  0.58686742    -0.18300
C1072       C  0.11869995  0.88932506  0.61508617     0.04100
C1073       C  0.09512765  0.88577155  0.62781388     0.18300
C1074       C  0.07709651  0.90465629  0.61184818    -0.19700
C1075       C  0.08965620  0.86320842  0.65618996    -0.20900
C1076       C  0.10710672  0.84387450  0.67207042    -0.19500
C1077       C  0.13043897  0.84643916  0.65976516     0.19700
C1078       C  0.13656255  0.86916802  0.63103233     0.01800
C1079       C  0.16029429  0.87058358  0.61932381    -0.14200
C1080       C  0.17723681  0.85070035  0.63578516    -0.11900
C1081       C  0.17129225  0.82859512  0.66450441     0.01400
C1082       C  0.14773186  0.82647113  0.67614948    -0.24100
H1083       H  0.10970706  0.94885183  0.54938031     0.09400
H1084       H  0.14071546  0.91751088  0.57600637     0.12900
H1085       H  0.05916727  0.90133534  0.62156204     0.12700
H1086       H  0.07173262  0.86045038  0.66614150     0.12900
H1087       H  0.10229113  0.82667094  0.69400678     0.11900
H1088       H  0.16643324  0.88678821  0.59748935     0.09000
H1089       H  0.19522041  0.85296100  0.62601136     0.12200
H1090       H  0.14283774  0.80957267  0.69838225     0.14100
C1091       C  0.42215375  0.58117568  0.58140017    -0.01400
C1092       C  0.42811553  0.60399449  0.60931525    -0.09400
C1093       C  0.41093507  0.62279954  0.62678557    -0.18300
C1094       C  0.38695389  0.61948065  0.61694653     0.04100
C1095       C  0.38089621  0.59624243  0.58873081     0.18300
C1096       C  0.39842181  0.57744916  0.57127009    -0.19700
C1097       C  0.35737431  0.59187900  0.57813086    -0.20900
C1098       C  0.33966812  0.60995554  0.59517325    -0.19500
C1099       C  0.34505507  0.63306752  0.62298621     0.19700
C1100       C  0.36879290  0.63831691  0.63412860     0.01800
C1101       C  0.37330555  0.66228431  0.66190041    -0.14200
C1102       C  0.35505762  0.68011198  0.67799375    -0.11900
C1103       C  0.33161890  0.67470598  0.66728547     0.01400
C1104       C  0.32679985  0.65105158  0.63966761    -0.24100
H1105       H  0.44624891  0.60746288  0.61787690     0.09400
H1106       H  0.41707775  0.63963469  0.64796614     0.12900
H1107       H  0.39352366  0.55999214  0.54962490     0.11700
H1108       H  0.35261877  0.57426298  0.55659869     0.12900
H1109       H  0.32161961  0.60588492  0.58644655     0.11900
H1110       H  0.39074144  0.66799156  0.67182651     0.09000
H1111       H  0.35942565  0.69813332  0.69923759     0.12200
H1112       H  0.30878684  0.64661056  0.63097193     0.14100
C1113       C  0.42180719  0.92453860  0.91703831    -0.01400
C1114       C  0.42710732  0.90622549  0.88455292    -0.09400
C1115       C  0.41001569  0.88736591  0.86687227    -0.18300
C1116       C  0.38683833  0.88598864  0.88124793     0.04100
C1117       C  0.38144052  0.90471071  0.91412340     0.18300
C1118       C  0.39884658  0.92376467  0.93158676    -0.19700
C1119       C  0.35870515  0.90431751  0.92935570    -0.20900
C1120       C  0.34109457  0.88599185  0.91236885    -0.19500
C1121       C  0.34582428  0.86745683  0.87987156     0.19700
C1122       C  0.36882081  0.86690822  0.86403883     0.01800
C1123       C  0.37275278  0.84733570  0.83159760    -0.14200
C1124       C  0.35457231  0.82952528  0.81527715    -0.11900
C1125       C  0.33185469  0.83054230  0.83055242     0.01400
C1126       C  0.32763148  0.84951988  0.86299431    -0.24100
H1127       H  0.44462937  0.90653347  0.87247165     0.09400
H1128       H  0.41557659  0.87425190  0.84194127     0.12900
H1129       H  0.39455203  0.93770329  0.95682944     0.11700
H1130       H  0.35447346  0.91843898  0.95446475     0.12900
H1131       H  0.32362672  0.88638435  0.92469341     0.11900
H1132       H  0.38965006  0.84521694  0.81801775     0.09000
H1133       H  0.35833252  0.81515051  0.79018669     0.12200
H1134       H  0.31015301  0.85027150  0.87529605     0.14100
C1135       C  0.42206334  0.57993756  0.91440141    -0.01400
C1136       C  0.42711965  0.59742343  0.88116086    -0.09400
C1137       C  0.40994636  0.61614445  0.86341184    -0.18300
C1138       C  0.38697473  0.61824427  0.87854326     0.04100
C1139       C  0.38186418  0.60033561  0.91217362     0.18300
C1140       C  0.39930305  0.58135617  0.92959945    -0.19700
C1141       C  0.35941095  0.60160348  0.92836773    -0.20900
C1142       C  0.34179823  0.62011744  0.91171831    -0.19500
C1143       C  0.34623424  0.63793422  0.87856303     0.19700
C1144       C  0.36892321  0.63745437  0.86158462     0.01800
C1145       C  0.37253829  0.65630940  0.82844717    -0.14200
C1146       C  0.35439243  0.67468921  0.81283323    -0.11900
C1147       C  0.33200483  0.67484039  0.82944161     0.01400
C1148       C  0.32806325  0.65631385  0.86231238    -0.24100
H1149       H  0.44450938  0.59662774  0.86861482     0.09400
H1150       H  0.41529040  0.62869352  0.83794565     0.12900
H1151       H  0.39522263  0.56810478  0.95545125     0.11700
H1152       H  0.35542471  0.58812827  0.95407871     0.12900
H1153       H  0.32457057  0.62051423  0.92489874     0.11900
H1154       H  0.38916564  0.65746947  0.81385391     0.09000
H1155       H  0.35789972  0.68860253  0.78728133     0.12200
H1156       H  0.31084212  0.65639630  0.87555955     0.14100
C1157       C  0.17264579  0.83153845  0.83345399    -0.01400
C1158       C  0.17820466  0.86223244  0.84763708    -0.09400
C1159       C  0.16094272  0.88195439  0.86351054    -0.18300
C1160       C  0.13733985  0.87154615  0.86600162     0.04100
C1161       C  0.13186482  0.84005590  0.85249380     0.18300
C1162       C  0.14940781  0.82054376  0.83619689    -0.19700
C1163       C  0.10888933  0.82824259  0.85521972    -0.20900
C1164       C  0.09115597  0.84706321  0.87094698    -0.19500
C1165       C  0.09590260  0.87827536  0.88405750     0.19700
C1166       C  0.11902343  0.89111237  0.88160117     0.01800
C1167       C  0.12274617  0.92294403  0.89491016    -0.14200
C1168       C  0.10445919  0.94076985  0.91106667    -0.11900
C1169       C  0.08181295  0.92775297  0.91404769     0.01400
C1170       C  0.07762927  0.89662246  0.89996540    -0.24100
H1171       H  0.19599874  0.87142676  0.84585764     0.09400
H1172       H  0.16669095  0.90519741  0.87357105     0.12900
H1173       H  0.14494730  0.79671491  0.82569295     0.11700
H1174       H  0.10460162  0.80422989  0.84517112     0.12900
H1175       H  0.07356548  0.83713868  0.87279838     0.11900
H1176       H  0.13958193  0.93475922  0.89341112     0.09000
H1177       H  0.10809260  0.96492442  0.92128187     0.12200
H1178       H  0.06017590  0.88627233  0.90219304     0.14100
C1179       C  0.42150222  0.92573575  0.58223139    -0.01400
C1180       C  0.39798422  0.93268404  0.57334476    -0.09400
C1181       C  0.37964889  0.91467910  0.58896036    -0.18300
C1182       C  0.38415190  0.88874138  0.61413200     0.04100
C1183       C  0.40798289  0.88184456  0.62338162     0.18300
C1184       C  0.42630601  0.90028201  0.60754607    -0.19700
C1185       C  0.41341514  0.85642335  0.64818222    -0.20900
C1186       C  0.39568586  0.83762500  0.66401107    -0.19500
C1187       C  0.37205838  0.84375958  0.65547257     0.19700
C1188       C  0.36591852  0.86936648  0.63035216     0.01800
C1189       C  0.34179623  0.87438615  0.62254187    -0.14200
C1190       C  0.32457151  0.85509176  0.63927125    -0.11900
C1191       C  0.33063718  0.83011781  0.66444323     0.01400
C1192       C  0.35451511  0.82449008  0.67214214    -0.24100
H1193       H  0.39360632  0.95211830  0.55393193     0.09400
H1194       H  0.36215368  0.92165706  0.58055254     0.12900
H1195       H  0.44437225  0.89453221  0.61475347     0.11700
H1196       H  0.43153131  0.85099461  0.65536208     0.12900
H1197       H  0.40050131  0.81813722  0.68311228     0.11900
H1198       H  0.33558532  0.89308719  0.60372598     0.09000
H1199       H  0.30632509  0.86006928  0.63259706     0.12200
H1200       H  0.35953007  0.80524745  0.69147036     0.14100
O1201       O  0.96204557  0.43671282  0.42723086    -0.75400
O1202       O  0.93441606  0.46617872  0.45891539    -0.54300
C1203       C  0.94061117  0.44382507  0.43551857     0.78300
O1204       O  0.54152072  0.43925499  0.07437022    -0.60000
O1205       O  0.56860483  0.46735686  0.03989789    -0.53000
C1206       C  0.56283157  0.44601392  0.06488346     0.70300
O1207       O  0.96222470  0.43688491  0.07230489    -0.74600
O1208       O  0.93499857  0.46697676  0.04047996    -0.55100
C1209       C  0.94084556  0.44435361  0.06380203     0.76300
O1210       O  0.54130110  0.43774549  0.42492471    -0.59700
O1211       O  0.56859342  0.46815657  0.45626860    -0.52800
C1212       C  0.56266982  0.44578315  0.43268132     0.72900
Zr1213     Zr  0.00171668  0.45471166  0.44261450     2.54700
O1214       O  0.00230004  0.39602077  0.44207805    -0.80300
O1215       O  0.50142311  0.45666336  0.37317895    -0.93700
Zr1216     Zr  0.00173507  0.45607962  0.05671575     2.64700
O1217       O  0.00177704  0.39748390  0.06070591    -0.98600
O1218       O  0.50133234  0.46080794  0.12596311    -0.80700
O1219       O  0.97927222  0.45467560  0.49966542    -0.84100
O1220       O  0.52414909  0.45449963  0.49963205    -2.18800
O1221       O  0.54098171  0.06791532  0.42360143    -0.67400
O1222       O  0.56804981  0.03881792  0.45701328    -0.52000
C1223       C  0.56228223  0.06072095  0.43275807     0.71300
O1224       O  0.96235700  0.06902960  0.07126321    -0.60400
O1225       O  0.93471888  0.03978209  0.03925179    -0.52300
C1226       C  0.94091181  0.06199016  0.06286653     0.73100
O1227       O  0.54157295  0.06827854  0.07264216    -0.71800
O1228       O  0.56855582  0.04050138  0.03745294    -0.50400
C1229       C  0.56281074  0.06188136  0.06233170     0.74500
O1230       O  0.96219419  0.06801003  0.42473651    -0.67100
O1231       O  0.93475591  0.03949259  0.45804313    -0.54300
C1232       C  0.94083683  0.06120244  0.43370062     0.72900
Zr1233     Zr  0.50154471  0.05020962  0.44125249     2.77500
O1234       O  0.50080321  0.10889368  0.43768569    -0.97800
O1235       O  0.50116090  0.04438199  0.37209048    -0.78600
Zr1236     Zr  0.50185469  0.05127815  0.05510195     2.70100
O1237       O  0.50225478  0.10997662  0.05490770    -0.79900
O1238       O  0.50121994  0.04899310  0.12455542    -0.99000
Zr1239     Zr  0.95664207  0.00310159  0.99898009     2.21500
Zr1240     Zr  0.54647050  0.50303322  0.49851022     2.11100
O1241       O  0.52408398  0.05156732  0.99804199    -2.47700
O1242       O  0.97914657  0.05142579  0.99813970    -0.79700
O1243       O  0.52453781  0.50231111  0.44065783    -0.71900
O1244       O  0.97881575  0.00379017  0.05686493    -2.32800
O1245       O  0.97861714  0.00244982  0.44109663    -2.29100
O1246       O  0.52491832  0.50355579  0.05672224    -0.73600
H1247       H  0.53425952  0.43575297  0.99968968     0.78400
H1248       H  0.96863809  0.00402307  0.07891788     0.79400
H1249       H  0.53407262  0.07046597  0.49781420     0.81700
H1250       H  0.96832634  0.00222770  0.41914188     0.79300
H1251       H  0.99434654  0.44121944  0.13526886     0.42300
H1252       H  0.51518070  0.03595523  0.13148302     0.41300
H1253       H  0.00358551  0.11572154  0.02650162     0.41000
H1254       H  0.51361441  0.11611633  0.45484576     0.38900
H1255       H  0.51615668  0.03339640  0.36602044     0.42000
H1256       H  0.98498258  0.46288995  0.36616266     0.36800
H1257       H  0.99463584  0.38976929  0.46634119     0.42900
H1258       H  0.51350798  0.39045295  0.04015441     0.39300
H1259       H  0.50648296  0.11401457  0.41167385     0.44300
H1260       H  0.00364351  0.43514622  0.36464231     0.43000
H1261       H  0.00743210  0.39264137  0.08683428     0.43100
H1262       H  0.50523366  0.07116350  0.13277707     0.43500
O1263       O  0.79056083  0.31802400  0.17553951    -0.75400
O1264       O  0.81832946  0.28882503  0.20725503    -0.54300
C1265       C  0.81205602  0.31107865  0.18373354     0.78300
O1266       O  0.71256791  0.31882864  0.32233084    -0.60000
O1267       O  0.68468863  0.28882985  0.29181491    -0.53000
C1268       C  0.69107949  0.31141731  0.31483442     0.70300
O1269       O  0.79161254  0.31934845  0.32092821    -0.74600
O1270       O  0.81866343  0.28913447  0.28895694    -0.55100
C1271       C  0.81290027  0.31167681  0.31234573     0.76300
O1272       O  0.71137801  0.31542256  0.17392275    -0.59700
O1273       O  0.68397549  0.28806262  0.20855924    -0.52800
C1274       C  0.68999054  0.30913583  0.18340693     0.72900
Zr1275     Zr  0.75113801  0.29935271  0.19144580     2.54700
O1276       O  0.74986146  0.35800628  0.18989312    -0.80300
O1277       O  0.75163153  0.29673601  0.12198996    -0.93700
Zr1278     Zr  0.75196824  0.30154296  0.30476927     2.64700
O1279       O  0.75272771  0.36021126  0.30282824    -0.98600
O1280       O  0.75162078  0.30162470  0.37422958    -0.80700
O1281       O  0.77422805  0.30129765  0.24770262    -0.84100
O1282       O  0.72884507  0.30116360  0.24844005    -2.18800
O1283       O  0.71150415  0.18828846  0.17542220    -0.67400
O1284       O  0.68414740  0.21618072  0.20981785    -0.52000
C1285       C  0.69014358  0.19504537  0.18475454     0.71300
O1286       O  0.79153074  0.18668706  0.32135227    -0.60400
O1287       O  0.81862378  0.21628758  0.28865751    -0.52300
C1288       C  0.81281487  0.19375480  0.31203220     0.73100
O1289       O  0.71261822  0.18831898  0.32523960    -0.71800
O1290       O  0.68494759  0.21698686  0.29252622    -0.50400
C1291       C  0.69115252  0.19521570  0.31672276     0.74500
O1292       O  0.79101913  0.18590416  0.17700677    -0.67100
O1293       O  0.81828891  0.21626831  0.20838725    -0.54300
C1294       C  0.81240775  0.19359261  0.18521251     0.72900
Zr1295     Zr  0.75137819  0.20387945  0.19387960     2.77500
O1296       O  0.75119076  0.14522821  0.19766955    -0.97800
O1297       O  0.75224988  0.20438842  0.12438107    -0.78600
Zr1298     Zr  0.75196845  0.20634639  0.30775533     2.70100
O1299       O  0.75236864  0.14808801  0.31607170    -0.79900
O1300       O  0.75329553  0.21530500  0.37645839    -0.99000
Zr1301     Zr  0.79649640  0.25286353  0.24869247     2.21500
Zr1302     Zr  0.70637392  0.25265110  0.25017242     2.11100
O1303       O  0.72909740  0.20431287  0.25106217    -2.47700
O1304       O  0.77412957  0.20455652  0.25053665    -0.79700
O1305       O  0.72824850  0.25152953  0.19209282    -0.71900
O1306       O  0.77501905  0.25391028  0.30711034    -2.32800
O1307       O  0.77416634  0.25169634  0.19112937    -2.29100
O1308       O  0.72885066  0.25393629  0.30763723    -0.73600
H1309       H  0.71879665  0.31993134  0.24806624     0.78400
H1310       H  0.78543053  0.25422733  0.32892372     0.79400
H1311       H  0.71908110  0.18553185  0.25154686     0.81700
H1312       H  0.78431109  0.25136045  0.16906002     0.79300
H1313       H  0.76664786  0.29137195  0.38170924     0.42300
H1314       H  0.73860119  0.22713886  0.38226031     0.41300
H1315       H  0.74985039  0.13943444  0.29004108     0.41000
H1316       H  0.73743699  0.13986648  0.21376296     0.38900
H1317       H  0.74166640  0.22233188  0.11709916     0.42000
H1318       H  0.76570554  0.28370128  0.11567971     0.36800
H1319       H  0.75999018  0.36482687  0.21144996     0.42900
H1320       H  0.73968246  0.36627696  0.28550292     0.39300
H1321       H  0.74670593  0.13801928  0.17171607     0.44300
H1322       H  0.75575093  0.31887461  0.11385082     0.43000
H1323       H  0.74736797  0.36697893  0.32848923     0.43100
H1324       H  0.75089255  0.19365213  0.38769620     0.43500
C1325       C  0.58197615  0.08089578  0.07978012    -0.01400
C1326       C  0.60287756  0.08623923  0.05966577    -0.09400
C1327       C  0.62080012  0.10506334  0.07529616    -0.18300
C1328       C  0.61847449  0.11898360  0.11199148     0.04100
C1329       C  0.59746298  0.11272490  0.13267560     0.18300
C1330       C  0.57939740  0.09421303  0.11629174    -0.19700
C1331       C  0.59460463  0.12491684  0.16963830    -0.20900
C1332       C  0.61211913  0.14347940  0.18651976    -0.19500
C1333       C  0.63281055  0.15065525  0.16666868     0.19700
C1334       C  0.63626466  0.13864273  0.12903030     0.01800
C1335       C  0.65737899  0.14688466  0.11011415    -0.14200
C1336       C  0.67458070  0.16537965  0.12821130    -0.11900
C1337       C  0.67125447  0.17675523  0.16543105     0.01400
C1338       C  0.65017508  0.16964432  0.18435742    -0.24100
H1339       H  0.60525003  0.07626162  0.03133057     0.09400
H1340       H  0.63627072  0.10809594  0.05796993     0.12900
H1341       H  0.56336487  0.08985038  0.13220377     0.11700
H1342       H  0.57871597  0.11999291  0.18566451     0.12900
H1343       H  0.60940388  0.15243242  0.21525747     0.11900
H1344       H  0.66119920  0.13939714  0.08134249     0.09000
H1345       H  0.69060984  0.17092331  0.11287770     0.12200
H1346       H  0.64751286  0.17826444  0.21327438     0.14100
C1347       C  0.58156817  0.07944699  0.41501180    -0.01400
C1348       C  0.60487085  0.07423945  0.42651745    -0.09400
C1349       C  0.62315687  0.09260847  0.41157778    -0.18300
C1350       C  0.61879979  0.11705992  0.38436983     0.04100
C1351       C  0.59520884  0.12192536  0.37215046     0.18300
C1352       C  0.57690150  0.10329751  0.38757453    -0.19700
C1353       C  0.59002591  0.14540372  0.34467835    -0.20900
C1354       C  0.60780483  0.16420478  0.32902290    -0.19500
C1355       C  0.63116451  0.16023822  0.34076595     0.19700
C1356       C  0.63699904  0.13674841  0.36878365     0.01800
C1357       C  0.66080061  0.13407840  0.38005615    -0.14200
C1358       C  0.67809165  0.15339952  0.36363653    -0.11900
C1359       C  0.67238211  0.17612079  0.33547145     0.01400
C1360       C  0.64876949  0.17956703  0.32446313    -0.24100
H1361       H  0.60909941  0.05602378  0.44760738     0.09400
H1362       H  0.64049582  0.08697303  0.42199320     0.12900
H1363       H  0.55897298  0.10756546  0.37828437     0.11700
H1364       H  0.57209833  0.14919304  0.33513711     0.12900
H1365       H  0.60323673  0.18205530  0.30765090     0.11900
H1366       H  0.66671729  0.11731399  0.40149367     0.09000
H1367       H  0.69611211  0.15026749  0.37298079     0.12200
H1368       H  0.64404283  0.19704646  0.30274292     0.14100
C1369       C  0.58199706  0.42733398  0.08336106    -0.01400
C1370       C  0.60533158  0.43137344  0.07153092    -0.09400
C1371       C  0.62334371  0.41272925  0.08709592    -0.18300
C1372       C  0.61866126  0.38912901  0.11523056     0.04100
C1373       C  0.59508817  0.38561548  0.12795281     0.18300
C1374       C  0.57707903  0.40455088  0.11197096    -0.19700
C1375       C  0.58960353  0.36304426  0.15632841    -0.20900
C1376       C  0.60704965  0.34369017  0.17222364    -0.19500
C1377       C  0.63038651  0.34622336  0.15990680     0.19700
C1378       C  0.63650292  0.36891239  0.13112650     0.01800
C1379       C  0.66021422  0.37024585  0.11930660    -0.14200
C1380       C  0.67716955  0.35041308  0.13578741    -0.11900
C1381       C  0.67126175  0.32841807  0.16462411     0.01400
C1382       C  0.64770087  0.32629237  0.17632229    -0.24100
H1383       H  0.60976678  0.44879811  0.04965715     0.09400
H1384       H  0.64072719  0.41740632  0.07631493     0.12900
H1385       H  0.55914259  0.40124785  0.12165493     0.12700
H1386       H  0.57167843  0.36031295  0.16628410     0.12900
H1387       H  0.60222926  0.32650517  0.19417912     0.11900
H1388       H  0.66633269  0.38634316  0.09735057     0.09000
H1389       H  0.69513812  0.35262423  0.12592678     0.12200
H1390       H  0.64282857  0.30944136  0.19861967     0.14100
C1391       C  0.92222358  0.08114565  0.08169588    -0.01400
C1392       C  0.92814910  0.10383454  0.10977929    -0.09400
C1393       C  0.91095137  0.12264230  0.12720335    -0.18300
C1394       C  0.88699531  0.11945926  0.11713411     0.04100
C1395       C  0.88096259  0.09621794  0.08891225     0.18300
C1396       C  0.89850316  0.07742930  0.07149704    -0.19700
C1397       C  0.85745347  0.09187395  0.07822521    -0.20900
C1398       C  0.83973592  0.11000120  0.09515980    -0.19500
C1399       C  0.84510593  0.13317660  0.12290694     0.19700
C1400       C  0.86883416  0.13842198  0.13410761     0.01800
C1401       C  0.87334504  0.16254175  0.16169003    -0.14200
C1402       C  0.85509558  0.18041768  0.17768399    -0.11900
C1403       C  0.83165978  0.17491546  0.16705117     0.01400
C1404       C  0.82684612  0.15121165  0.13948968    -0.24100
H1405       H  0.94626725  0.10722634  0.11847012     0.09400
H1406       H  0.91705799  0.13936722  0.14853447     0.12900
H1407       H  0.89362814  0.06001642  0.04978871     0.11700
H1408       H  0.85271731  0.07423451  0.05670865     0.12900
H1409       H  0.82169593  0.10593575  0.08638261     0.11900
H1410       H  0.89078320  0.16834280  0.17152692     0.09000
H1411       H  0.85945940  0.19852915  0.19882233     0.12200
H1412       H  0.80883482  0.14673953  0.13080353     0.14100
C1413       C  0.92197540  0.42464026  0.41664726    -0.01400
C1414       C  0.92730980  0.40633213  0.38417174    -0.09400
C1415       C  0.91024029  0.38743483  0.36648081    -0.18300
C1416       C  0.88705631  0.38603958  0.38082960     0.04100
C1417       C  0.88162052  0.40483180  0.41363491     0.18300
C1418       C  0.89900422  0.42388809  0.43112611    -0.19700
C1419       C  0.85886761  0.40450472  0.42878355    -0.20900
C1420       C  0.84127530  0.38615756  0.41180133    -0.19500
C1421       C  0.84604830  0.36748980  0.37943380     0.19700
C1422       C  0.86906406  0.36687010  0.36367757     0.01800
C1423       C  0.87303819  0.34709829  0.33141761    -0.14200
C1424       C  0.85487215  0.32915372  0.31521697    -0.11900
C1425       C  0.83212423  0.33026337  0.33041767     0.01400
C1426       C  0.82787407  0.34946026  0.36265257    -0.24100
H1427       H  0.94484215  0.40665473  0.37212903     0.09400
H1428       H  0.91581216  0.37431382  0.34155914     0.12900
H1429       H  0.89468235  0.43784279  0.45634520     0.11700
H1430       H  0.85460655  0.41869570  0.45382450     0.12900
H1431       H  0.82379119  0.38660281  0.42406077     0.11900
H1432       H  0.88996247  0.34489725  0.31793502     0.09000
H1433       H  0.85866561  0.31460496  0.29028084     0.12200
H1434       H  0.81038275  0.35029316  0.37489411     0.14100
C1435       C  0.92211564  0.07999809  0.41455922    -0.01400
C1436       C  0.92716096  0.09742283  0.38127623    -0.09400
C1437       C  0.90996608  0.11604404  0.36345629    -0.18300
C1438       C  0.88699086  0.11811993  0.37857522     0.04100
C1439       C  0.88188839  0.10025496  0.41223997     0.18300
C1440       C  0.89934786  0.08136258  0.42973047    -0.19700
C1441       C  0.85942411  0.10148288  0.42839817    -0.20900
C1442       C  0.84178697  0.11989544  0.41165551    -0.19500
C1443       C  0.84621620  0.13766335  0.37845813     0.19700
C1444       C  0.86892710  0.13725989  0.36155721     0.01800
C1445       C  0.87255842  0.15613568  0.32844344    -0.14200
C1446       C  0.85439865  0.17442796  0.31274074    -0.11900
C1447       C  0.83198144  0.17447632  0.32923846     0.01400
C1448       C  0.82802488  0.15594022  0.36210113    -0.24100
H1449       H  0.94455374  0.09664212  0.36873897     0.09400
H1450       H  0.91529574  0.12852286  0.33793525     0.12900
H1451       H  0.89527574  0.06813372  0.45560259     0.11700
H1452       H  0.85544633  0.08804663  0.45414180     0.12900
H1453       H  0.82454796  0.12025613  0.42479787     0.11900
H1454       H  0.88921487  0.15740448  0.31395218     0.09000
H1455       H  0.85792610  0.18838007  0.28722621     0.12200
H1456       H  0.81078578  0.15597027  0.37528655     0.14100
C1457       C  0.67262523  0.33113311  0.33336454    -0.01400
C1458       C  0.67818838  0.36180053  0.34759960    -0.09400
C1459       C  0.66092755  0.38151367  0.36347175    -0.18300
C1460       C  0.63731313  0.37113767  0.36587262     0.04100
C1461       C  0.63182745  0.33967568  0.35227656     0.18300
C1462       C  0.64938709  0.32013246  0.33607287    -0.19700
C1463       C  0.60880988  0.32797077  0.35470531    -0.20900
C1464       C  0.59103259  0.34690920  0.37011816    -0.19500
C1465       C  0.59580242  0.37806793  0.38340816     0.19700
C1466       C  0.61898654  0.39074088  0.38139129     0.01800
C1467       C  0.62276901  0.42243632  0.39510616    -0.14200
C1468       C  0.60447625  0.44028655  0.41122068    -0.11900
C1469       C  0.58174745  0.42746183  0.41373759     0.01400
C1470       C  0.57750536  0.39648380  0.39917915    -0.24100
H1471       H  0.69598246  0.37099692  0.34582582     0.09400
H1472       H  0.66667766  0.40476495  0.37349430     0.12900
H1473       H  0.64492815  0.29631811  0.32551745     0.11700
H1474       H  0.60451035  0.30398483  0.34457735     0.12900
H1475       H  0.57339939  0.33709115  0.37166239     0.11900
H1476       H  0.63967431  0.43409724  0.39407303     0.09000
H1477       H  0.60818377  0.46430071  0.42181789     0.12200
H1478       H  0.55999716  0.38625771  0.40102347     0.14100
C1479       C  0.92156067  0.42544659  0.08172088    -0.01400
C1480       C  0.89804113  0.43230497  0.07278322    -0.09400
C1481       C  0.87972447  0.41442398  0.08862957    -0.18300
C1482       C  0.88424359  0.38867656  0.11406578     0.04100
C1483       C  0.90808328  0.38172154  0.12317955     0.18300
C1484       C  0.92639330  0.40008969  0.10717444    -0.19700
C1485       C  0.91352785  0.35629157  0.14797161    -0.20900
C1486       C  0.89580093  0.33749080  0.16383097    -0.19500
C1487       C  0.87215781  0.34376563  0.15552665     0.19700
C1488       C  0.86601013  0.36949498  0.13058755     0.01800
C1489       C  0.84187096  0.37488326  0.12330672    -0.14200
C1490       C  0.82464061  0.35570746  0.14018143    -0.11900
C1491       C  0.83070989  0.33046413  0.16496771     0.01400
C1492       C  0.85460185  0.32455373  0.17228022    -0.24100
H1493       H  0.89364451  0.45159703  0.05318359     0.09400
H1494       H  0.86223167  0.42130024  0.08010133     0.12900
H1495       H  0.94446710  0.39437351  0.11437064     0.11700
H1496       H  0.93165171  0.35080632  0.15504049     0.12900
H1497       H  0.90062669  0.31793691  0.18283087     0.11900
H1498       H  0.83564014  0.39383976  0.10487467     0.09000
H1499       H  0.80638573  0.36097653  0.13389681     0.12200
H1500       H  0.85961597  0.30513549  0.19136039     0.14100
O1501       O  0.96198071  0.43686602  0.92738404    -0.75400
O1502       O  0.93435654  0.46623056  0.95919284    -0.54300
C1503       C  0.94054363  0.44389239  0.93576829     0.78300
O1504       O  0.54156141  0.43932680  0.57435909    -0.60000
O1505       O  0.56864436  0.46742649  0.53988342    -0.53000
C1506       C  0.56287412  0.44608840  0.56486960     0.70300
O1507       O  0.96229930  0.43714245  0.57293590    -0.74600
O1508       O  0.93506323  0.46690147  0.54067177    -0.55100
C1509       C  0.94092042  0.44450957  0.56430391     0.76300
O1510       O  0.54124289  0.43796132  0.92460908    -0.59700
O1511       O  0.56857002  0.46802665  0.95633597    -0.52800
C1512       C  0.56261748  0.44585005  0.93252781     0.72900
Zr1513     Zr  0.00169607  0.45485895  0.94255872     2.54700
O1514       O  0.00225711  0.39619737  0.94192530    -0.80300
O1515       O  0.50113052  0.45562555  0.87313791    -0.93700
Zr1516     Zr  0.00177905  0.45603160  0.55675417     2.64700
O1517       O  0.00150705  0.39743666  0.56063888    -0.98600
O1518       O  0.50134685  0.46102974  0.62601809    -0.80700
O1519       O  0.97926447  0.45477906  0.99960957    -0.84100
O1520       O  0.52414571  0.45445194  0.99956027    -2.18800
O1521       O  0.54112654  0.06771943  0.92357961    -0.67400
O1522       O  0.56818938  0.03864481  0.95705618    -0.52000
C1523       C  0.56243832  0.06055208  0.93279008     0.71300
O1524       O  0.96224772  0.06899324  0.57090169    -0.60400
O1525       O  0.93457237  0.03946891  0.53931906    -0.52300
C1526       C  0.94078824  0.06185991  0.56267050     0.73100
O1527       O  0.54144616  0.06853847  0.57276471    -0.71800
O1528       O  0.56844243  0.04065067  0.53772746    -0.50400
C1529       C  0.56268334  0.06208431  0.56255911     0.74500
O1530       O  0.96208899  0.06786317  0.92457569    -0.67100
O1531       O  0.93467051  0.03939103  0.95796915    -0.54300
C1532       C  0.94073675  0.06102572  0.93353583     0.72900
Zr1533     Zr  0.50157726  0.05015647  0.94117217     2.77500
O1534       O  0.50084675  0.10885618  0.93789229    -0.97800
O1535       O  0.50085847  0.04431792  0.87200547    -0.78600
Zr1536     Zr  0.50181648  0.05138718  0.55516209     2.70100
O1537       O  0.50215697  0.11009599  0.55500891    -0.79900
O1538       O  0.50150587  0.04930091  0.62463231    -0.99000
Zr1539     Zr  0.95662623  0.00299505  0.49901726     2.21500
Zr1540     Zr  0.54646926  0.50297721  0.99842609     2.11100
O1541       O  0.52406028  0.05167942  0.49810778    -2.47700
O1542       O  0.97914909  0.05128490  0.49820009    -0.79700
O1543       O  0.52449910  0.50234882  0.94058777    -0.71900
O1544       O  0.97875643  0.00377331  0.55692259    -2.32800
O1545       O  0.97859943  0.00250536  0.94098459    -2.29100
O1546       O  0.52491884  0.50357160  0.55679047    -0.73600
H1547       H  0.53427252  0.43581098  0.49978877     0.78400
H1548       H  0.96856951  0.00403108  0.57896422     0.79400
H1549       H  0.53410337  0.07034680  0.99775660     0.81700
H1550       H  0.96830930  0.00224671  0.91902877     0.79300
H1551       H  0.00868311  0.44151690  0.63558821     0.42300
H1552       H  0.51466454  0.03470459  0.63134237     0.41300
H1553       H  0.00153977  0.11575697  0.52686070     0.41000
H1554       H  0.51407773  0.11600547  0.95423676     0.38900
H1555       H  0.51530724  0.03203689  0.86592340     0.42000
H1556       H  0.98514934  0.46421047  0.86619190     0.36800
H1557       H  0.00107097  0.39003526  0.96916686     0.42900
H1558       H  0.51486346  0.39048977  0.54301276     0.39300
H1559       H  0.50589024  0.11402247  0.91154867     0.44300
H1560       H  0.00164383  0.43399242  0.86500051     0.43000
H1561       H  0.00736180  0.39248019  0.58662031     0.43100
H1562       H  0.50692852  0.07093472  0.63273068     0.43500
O1563       O  0.79060793  0.31782642  0.67527495    -0.75400
O1564       O  0.81839949  0.28873006  0.70706709    -0.54300
C1565       C  0.81210880  0.31091674  0.68348720     0.78300
O1566       O  0.71261508  0.31900163  0.82235833    -0.60000
O1567       O  0.68472148  0.28884123  0.79212744    -0.53000
C1568       C  0.69111905  0.31151002  0.81502967     0.70300
O1569       O  0.79156880  0.31968789  0.82058409    -0.74600
O1570       O  0.81862781  0.28956114  0.78851494    -0.55100
C1571       C  0.81284882  0.31211620  0.81188695     0.76300
O1572       O  0.71139764  0.31534468  0.67381410    -0.59700
O1573       O  0.68399922  0.28816980  0.70865927    -0.52800
C1574       C  0.69001729  0.30915372  0.68340119     0.72900
Zr1575     Zr  0.75114601  0.29941773  0.69143012     2.54700
O1576       O  0.74980820  0.35806588  0.69009919    -0.80300
O1577       O  0.75157701  0.29701423  0.62197360    -0.93700
Zr1578     Zr  0.75199458  0.30162479  0.80471487     2.64700
O1579       O  0.75268648  0.36029102  0.80284055    -0.98600
O1580       O  0.75185522  0.30165258  0.87417428    -0.80700
O1581       O  0.77425467  0.30136355  0.74763891    -0.84100
O1582       O  0.72885278  0.30127942  0.74844503    -2.18800
O1583       O  0.71139391  0.18845523  0.67553469    -0.67400
O1584       O  0.68410017  0.21621536  0.71021640    -0.52000
C1585       C  0.69005030  0.19514649  0.68505449     0.71300
O1586       O  0.79162430  0.18697926  0.82157352    -0.60400
O1587       O  0.81867513  0.21641279  0.78858209    -0.52300
C1588       C  0.81289462  0.19399558  0.81213288     0.73100
O1589       O  0.71267268  0.18868027  0.82542529    -0.71800
O1590       O  0.68494710  0.21721662  0.79266693    -0.50400
C1591       C  0.69118776  0.19553582  0.81693947     0.74500
O1592       O  0.79097563  0.18578331  0.67713640    -0.67100
O1593       O  0.81828577  0.21623537  0.70832278    -0.54300
C1594       C  0.81237758  0.19345437  0.68531285     0.72900
Zr1595     Zr  0.75133183  0.20402959  0.69371894     2.77500
O1596       O  0.75104486  0.14535684  0.69684647    -0.97800
O1597       O  0.75215822  0.20536358  0.62421527    -0.78600
Zr1598     Zr  0.75206582  0.20641889  0.80762244     2.70100
O1599       O  0.75269268  0.14807476  0.81504299    -0.79900
O1600       O  0.75357620  0.21515665  0.87633916    -0.99000
Zr1601     Zr  0.79653234  0.25293727  0.74854422     2.21500
Zr1602     Zr  0.70639438  0.25277647  0.75030322     2.11100
O1603       O  0.72913639  0.20444760  0.75100680    -2.47700
O1604       O  0.77414154  0.20467199  0.75032274    -0.79700
O1605       O  0.72819562  0.25166305  0.69215497    -0.71900
O1606       O  0.77508941  0.25400654  0.80695887    -2.32800
O1607       O  0.77417362  0.25178131  0.69101042    -2.29100
O1608       O  0.72893523  0.25399135  0.80769021    -0.73600
H1609       H  0.71880442  0.32004820  0.74808043     0.78400
H1610       H  0.78552380  0.25434300  0.82874204     0.79400
H1611       H  0.71912281  0.18566464  0.75154383     0.81700
H1612       H  0.78430810  0.25143657  0.66892784     0.79300
H1613       H  0.76674976  0.29097572  0.88152043     0.42300
H1614       H  0.73880233  0.22672838  0.88234157     0.41300
H1615       H  0.75160794  0.13969623  0.78862964     0.41000
H1616       H  0.73771263  0.13996003  0.71383427     0.38900
H1617       H  0.74101517  0.22273929  0.61720354     0.42000
H1618       H  0.76471916  0.28227076  0.61564269     0.36800
H1619       H  0.75964817  0.36483535  0.71202703     0.42900
H1620       H  0.73948596  0.36636099  0.78583048     0.39300
H1621       H  0.74585253  0.13837202  0.67115519     0.44300
H1622       H  0.75718040  0.31856270  0.61395604     0.43000
H1623       H  0.74755078  0.36702020  0.82863643     0.43100
H1624       H  0.75141395  0.19342739  0.88749599     0.43500
C1625       C  0.58182253  0.08111861  0.58007472    -0.01400
C1626       C  0.60272594  0.08648446  0.55999446    -0.09400
C1627       C  0.62062463  0.10533495  0.57563784    -0.18300
C1628       C  0.61828392  0.11925383  0.61233025     0.04100
C1629       C  0.59727406  0.11297765  0.63300651     0.18300
C1630       C  0.57921307  0.09446057  0.61658694    -0.19700
C1631       C  0.59443155  0.12513111  0.66999880    -0.20900
C1632       C  0.61197559  0.14362871  0.68692398    -0.19500
C1633       C  0.63266401  0.15082198  0.66706552     0.19700
C1634       C  0.63607586  0.13890048  0.62937727     0.01800
C1635       C  0.65715236  0.14721976  0.61040289    -0.14200
C1636       C  0.67437649  0.16566361  0.62849680    -0.11900
C1637       C  0.67112194  0.17689735  0.66578720     0.01400
C1638       C  0.65006603  0.16974345  0.68477521    -0.24100
H1639       H  0.60511940  0.07650043  0.53166797     0.09400
H1640       H  0.63610320  0.10835739  0.55833106     0.12900
H1641       H  0.56317305  0.09009303  0.63247742     0.11700
H1642       H  0.57854490  0.12019921  0.68602659     0.12900
H1643       H  0.60928389  0.15252339  0.71569365     0.11900
H1644       H  0.66092168  0.13985285  0.58157128     0.09000
H1645       H  0.69037016  0.17127792  0.61310152     0.12200
H1646       H  0.64744801  0.17828604  0.71373531     0.14100
C1647       C  0.58174786  0.07933217  0.91510077    -0.01400
C1648       C  0.60505958  0.07421784  0.92666276    -0.09400
C1649       C  0.62333371  0.09265858  0.91174775    -0.18300
C1650       C  0.61895376  0.11710434  0.88453134     0.04100
C1651       C  0.59536130  0.12187530  0.87227309     0.18300
C1652       C  0.57707641  0.10317272  0.88765400    -0.19700
C1653       C  0.59014331  0.14535224  0.84481566    -0.20900
C1654       C  0.60788077  0.16427822  0.82924671    -0.19500
C1655       C  0.63124197  0.16041860  0.84103036     0.19700
C1656       C  0.63711977  0.13689732  0.86899305     0.01800
C1657       C  0.66092738  0.13430165  0.88025646    -0.14200
C1658       C  0.67818310  0.15371611  0.86388161    -0.11900
C1659       C  0.67243445  0.17646002  0.83576814     0.01400
C1660       C  0.64880885  0.17986032  0.82479319    -0.24100
H1661       H  0.60929935  0.05602378  0.94777286     0.09400
H1662       H  0.64067919  0.08710438  0.92220335     0.12900
H1663       H  0.55914966  0.10738445  0.87832463     0.11700
H1664       H  0.57221425  0.14905982  0.83523731     0.12900
H1665       H  0.60327843  0.18213589  0.80790201     0.11900
H1666       H  0.66687556  0.11750063  0.90163056     0.09000
H1667       H  0.69621306  0.15061344  0.87318970     0.12200
H1668       H  0.64404688  0.19735689  0.80311103     0.14100
C1669       C  0.58205102  0.42743010  0.58335277    -0.01400
C1670       C  0.60537386  0.43139490  0.57141843    -0.09400
C1671       C  0.62340202  0.41281269  0.58704817    -0.18300
C1672       C  0.61874779  0.38933978  0.61534619     0.04100
C1673       C  0.59517394  0.38582830  0.62807229     0.18300
C1674       C  0.57715588  0.40473759  0.61206915    -0.19700
C1675       C  0.58968591  0.36323848  0.65642304    -0.20900
C1676       C  0.60711253  0.34379275  0.67220933    -0.19500
C1677       C  0.63045218  0.34634349  0.65992304     0.19700
C1678       C  0.63660008  0.36917141  0.63131175     0.01800
C1679       C  0.66035210  0.37069115  0.61973953    -0.14200
C1680       C  0.67728249  0.35076501  0.63613195    -0.11900
C1681       C  0.67131540  0.32851047  0.66466204     0.01400
C1682       C  0.64773690  0.32629858  0.67622218    -0.24100
H1683       H  0.60978652  0.44870867  0.54940926     0.09400
H1684       H  0.64076426  0.41737702  0.57611228     0.12900
H1685       H  0.55922522  0.40146274  0.62179535     0.12700
H1686       H  0.57176075  0.36050570  0.66637639     0.12900
H1687       H  0.60227599  0.32653434  0.69407440     0.11900
H1688       H  0.66653058  0.38704487  0.59809634     0.09000
H1689       H  0.69528119  0.35312915  0.62646642     0.12200
H1690       H  0.64282788  0.30929899  0.69833950     0.14100
C1691       C  0.92212635  0.08114592  0.58137704    -0.01400
C1692       C  0.92811271  0.10409787  0.60912296    -0.09400
C1693       C  0.91094123  0.12292231  0.62658108    -0.18300
C1694       C  0.88694529  0.11948456  0.61689971     0.04100
C1695       C  0.88087057  0.09615974  0.58879377     0.18300
C1696       C  0.89838420  0.07732786  0.57137125    -0.19700
C1697       C  0.85734527  0.09176272  0.57824173    -0.20900
C1698       C  0.83964920  0.10988731  0.59522900    -0.19500
C1699       C  0.84504654  0.13303174  0.62299422     0.19700
C1700       C  0.86878672  0.13829771  0.63411413     0.01800
C1701       C  0.87329956  0.16222802  0.66193028    -0.14200
C1702       C  0.85505171  0.18003866  0.67803999    -0.11900
C1703       C  0.83161848  0.17465958  0.66728673     0.01400
C1704       C  0.82679555  0.15101779  0.63966526    -0.24100
H1705       H  0.94625941  0.10766413  0.61755178     0.09400
H1706       H  0.91710603  0.13989045  0.64759492     0.12900
H1707       H  0.89346996  0.05978619  0.54983175     0.11700
H1708       H  0.85258053  0.07409588  0.55677383     0.12900
H1709       H  0.82159794  0.10580486  0.58652506     0.11900
H1710       H  0.89073091  0.16789386  0.67191004     0.09000
H1711       H  0.85941518  0.19803017  0.69932243     0.12200
H1712       H  0.80878272  0.14658720  0.63095957     0.14100
C1713       C  0.92190977  0.42465045  0.91692167    -0.01400
C1714       C  0.92727263  0.40631317  0.88447741    -0.09400
C1715       C  0.91020156  0.38750253  0.86666144    -0.18300
C1716       C  0.88697847  0.38620708  0.88084505     0.04100
C1717       C  0.88152047  0.40494409  0.91368737     0.18300
C1718       C  0.89890999  0.42392777  0.93130631    -0.19700
C1719       C  0.85873496  0.40465726  0.92871691    -0.20900
C1720       C  0.84113402  0.38643497  0.91155965    -0.19500
C1721       C  0.84592694  0.36786071  0.87912264     0.19700
C1722       C  0.86897189  0.36718949  0.86348862     0.01800
C1723       C  0.87295968  0.34752937  0.83113193    -0.14200
C1724       C  0.85479417  0.32968513  0.81477632    -0.11900
C1725       C  0.83203572  0.33078745  0.82991539     0.01400
C1726       C  0.82775246  0.34994531  0.86217697    -0.24100
H1727       H  0.94482661  0.40657618  0.87251769     0.09400
H1728       H  0.91580499  0.37437643  0.84176302     0.12900
H1729       H  0.89456236  0.43788220  0.95651324     0.11700
H1730       H  0.85445424  0.41878992  0.95379461     0.12900
H1731       H  0.82362711  0.38690881  0.92373342     0.11900
H1732       H  0.88989802  0.34532689  0.81769936     0.09000
H1733       H  0.85860444  0.31518039  0.78981056     0.12200
H1734       H  0.81024526  0.35078828  0.87435958     0.14100
C1735       C  0.92200903  0.07970998  0.91428988    -0.01400
C1736       C  0.92702079  0.09690161  0.88082511    -0.09400
C1737       C  0.90984569  0.11555978  0.86300675    -0.18300
C1738       C  0.88693717  0.11791881  0.87833183     0.04100
C1739       C  0.88183976  0.10014858  0.91206992     0.18300
C1740       C  0.89927627  0.08122771  0.92956044    -0.19700
C1741       C  0.85940816  0.10151657  0.92832204    -0.20900
C1742       C  0.84180356  0.12001356  0.91163430    -0.19500
C1743       C  0.84624943  0.13778096  0.87844584     0.19700
C1744       C  0.86893161  0.13724441  0.86145136     0.01800
C1745       C  0.87260217  0.15622064  0.82842918    -0.14200
C1746       C  0.85447927  0.17464843  0.81282829    -0.11900
C1747       C  0.83206930  0.17474601  0.82935614     0.01400
C1748       C  0.82809940  0.15618991  0.86219519    -0.24100
H1749       H  0.94437651  0.09593092  0.86817086     0.09400
H1750       H  0.91513057  0.12783718  0.83732269     0.12900
H1751       H  0.89522368  0.06812936  0.95553419     0.11700
H1752       H  0.85543029  0.08812470  0.95409782     0.12900
H1753       H  0.82458472  0.12047378  0.92484124     0.11900
H1754       H  0.88926634  0.15748004  0.81395666     0.09000
H1755       H  0.85802336  0.18864370  0.78735351     0.12200
H1756       H  0.81087351  0.15627868  0.87542599     0.14100
C1757       C  0.67265941  0.33122211  0.83359171    -0.01400
C1758       C  0.67821084  0.36188185  0.84787602    -0.09400
C1759       C  0.66092521  0.38161569  0.86365875    -0.18300
C1760       C  0.63729711  0.37127165  0.86590514     0.04100
C1761       C  0.63183381  0.33978874  0.85236075     0.18300
C1762       C  0.64941399  0.32023188  0.83624111    -0.19700
C1763       C  0.60881826  0.32806984  0.85475856    -0.20900
C1764       C  0.59102618  0.34699891  0.87013160    -0.19500
C1765       C  0.59577037  0.37818470  0.88333889     0.19700
C1766       C  0.61893938  0.39090764  0.88126146     0.01800
C1767       C  0.62267240  0.42268638  0.89473647    -0.14200
C1768       C  0.60436458  0.44052145  0.91082080    -0.11900
C1769       C  0.58167598  0.42759358  0.91351420     0.01400
C1770       C  0.57746224  0.39657635  0.89909004    -0.24100
H1771       H  0.69601292  0.37106039  0.84619886     0.09400
H1772       H  0.66666653  0.40484755  0.87376355     0.12900
H1773       H  0.64496099  0.29641578  0.82568689     0.11700
H1774       H  0.60453640  0.30406677  0.84467039     0.12900
H1775       H  0.57340051  0.33715684  0.87169623     0.11900
H1776       H  0.63954586  0.43442330  0.89351606     0.09000
H1777       H  0.60802603  0.46459673  0.92126803     0.12200
H1778       H  0.55997358  0.38630042  0.90104723     0.14100
C1779       C  0.92163769  0.42571342  0.58237431    -0.01400
C1780       C  0.89811547  0.43278848  0.57370702    -0.09400
C1781       C  0.87979330  0.41484126  0.58941400    -0.18300
C1782       C  0.88430635  0.38885284  0.61449981     0.04100
C1783       C  0.90814512  0.38178383  0.62350351     0.18300
C1784       C  0.92646621  0.40017310  0.60757000    -0.19700
C1785       C  0.91357522  0.35623217  0.64812617    -0.20900
C1786       C  0.89583455  0.33742021  0.66391795    -0.19500
C1787       C  0.87219933  0.34373224  0.65560139     0.19700
C1788       C  0.86606465  0.36956747  0.63081258     0.01800
C1789       C  0.84193168  0.37492804  0.62343149    -0.14200
C1790       C  0.82469453  0.35563638  0.64009528    -0.11900
C1791       C  0.83075581  0.33032194  0.66477529     0.01400
C1792       C  0.85463880  0.32443145  0.67217136    -0.24100
H1793       H  0.89372001  0.45227588  0.55438037     0.09400
H1794       H  0.86229965  0.42188588  0.58108889     0.12900
H1795       H  0.94454197  0.39430833  0.61458190     0.11700
H1796       H  0.93169592  0.35067858  0.65514026     0.12900
H1797       H  0.90064500  0.31779262  0.68282159     0.11900
H1798       H  0.83571147  0.39392137  0.60504408     0.09000
H1799       H  0.80644287  0.36088520  0.63376000     0.12200
H1800       H  0.85964364  0.30495483  0.69117488     0.14100
O1801       O  0.96205448  0.93667507  0.42725726    -0.75400
O1802       O  0.93445540  0.96618974  0.45895762    -0.54300
C1803       C  0.94063208  0.94378854  0.43559777     0.78300
O1804       O  0.54144775  0.93938051  0.07456821    -0.60000
O1805       O  0.56852776  0.96747566  0.04008245    -0.53000
C1806       C  0.56275647  0.94611363  0.06503476     0.70300
O1807       O  0.96224975  0.93715506  0.07276956    -0.74600
O1808       O  0.93505009  0.96703403  0.04059116    -0.55100
C1809       C  0.94088245  0.94457946  0.06415805     0.76300
O1810       O  0.54126689  0.93776258  0.42523013    -0.59700
O1811       O  0.56855846  0.96817772  0.45657209    -0.52800
C1812       C  0.56264020  0.94573838  0.43306624     0.72900
Zr1813     Zr  0.00166526  0.95478237  0.44269117     2.54700
O1814       O  0.00233006  0.89609686  0.44311423    -0.80300
O1815       O  0.50119895  0.95723743  0.37321214    -0.93700
Zr1816     Zr  0.00172183  0.95602961  0.05658632     2.64700
O1817       O  0.00188286  0.89735371  0.05857621    -0.98600
O1818       O  0.50108745  0.96197784  0.12603400    -0.80700
O1819       O  0.97922811  0.95478660  0.49974061    -0.84100
O1820       O  0.52404321  0.95470716  0.49972113    -2.18800
O1821       O  0.54103376  0.56777140  0.42357899    -0.67400
O1822       O  0.56813131  0.53879343  0.45708704    -0.52000
C1823       C  0.56234435  0.56068289  0.43282546     0.71300
O1824       O  0.96229947  0.56898566  0.07122597    -0.60400
O1825       O  0.93468097  0.53968589  0.03924357    -0.52300
C1826       C  0.94086106  0.56192125  0.06283115     0.73100
O1827       O  0.54159525  0.56825596  0.07241716    -0.71800
O1828       O  0.56859545  0.54040188  0.03734087    -0.50400
C1829       C  0.56283915  0.56184030  0.06215211     0.74500
O1830       O  0.96218718  0.56800699  0.42475640    -0.67100
O1831       O  0.93475492  0.53929564  0.45784132    -0.54300
C1832       C  0.94083039  0.56110133  0.43361451     0.72900
Zr1833     Zr  0.50156817  0.54999708  0.44110283     2.77500
O1834       O  0.50080348  0.60869149  0.43791908    -0.97800
O1835       O  0.50110649  0.54423255  0.37191834    -0.78600
Zr1836     Zr  0.50187205  0.55121225  0.05494111     2.70100
O1837       O  0.50237253  0.60990539  0.05426692    -0.79900
O1838       O  0.50125089  0.54913687  0.12440293    -0.99000
Zr1839     Zr  0.95666272  0.50303907  0.99899947     2.21500
Zr1840     Zr  0.54641020  0.00318905  0.49862284     2.11100
O1841       O  0.52409971  0.55144367  0.99788058    -2.47700
O1842       O  0.97916627  0.55136384  0.99817866    -0.79700
O1843       O  0.52451383  0.00253277  0.44074312    -0.71900
O1844       O  0.97876177  0.50376964  0.05698523    -2.32800
O1845       O  0.97863458  0.50234937  0.44101748    -2.29100
O1846       O  0.52488998  0.00364093  0.05689582    -0.73600
H1847       H  0.53414406  0.93589905  0.99989476     0.78400
H1848       H  0.96856335  0.50398009  0.07901487     0.79400
H1849       H  0.53405816  0.57027480  0.49769782     0.81700
H1850       H  0.96835368  0.50211913  0.41905110     0.79300
H1851       H  0.99531473  0.93917842  0.13479324     0.42300
H1852       H  0.51409482  0.53406594  0.13124078     0.41300
H1853       H  0.00336773  0.61564302  0.02641834     0.41000
H1854       H  0.51382340  0.61583699  0.45470665     0.38900
H1855       H  0.51456200  0.52986860  0.36622727     0.42000
H1856       H  0.98484576  0.96355821  0.36637738     0.36800
H1857       H  0.99405768  0.89009445  0.46693453     0.42900
H1858       H  0.51434857  0.89052725  0.04251778     0.39300
H1859       H  0.50616355  0.61391961  0.41175822     0.44300
H1860       H  0.00288492  0.93505337  0.36473708     0.43000
H1861       H  0.00715744  0.89192266  0.08474943     0.43100
H1862       H  0.50704966  0.57056657  0.13257177     0.43500
O1863       O  0.79054406  0.81799082  0.17541937    -0.75400
O1864       O  0.81834597  0.78878414  0.20704028    -0.54300
C1865       C  0.81205035  0.81102287  0.18351100     0.78300
O1866       O  0.71257871  0.81908779  0.32226468    -0.60000
O1867       O  0.68473748  0.78875834  0.29210823    -0.53000
C1868       C  0.69109743  0.81152119  0.31491246     0.70300
O1869       O  0.79151213  0.81955345  0.32103038    -0.74600
O1870       O  0.81856659  0.78938688  0.28900268    -0.55100
C1871       C  0.81279231  0.81190811  0.31242615     0.76300
O1872       O  0.71135987  0.81527295  0.17378759    -0.59700
O1873       O  0.68396210  0.78817842  0.20872829    -0.52800
C1874       C  0.68997346  0.80913147  0.18342172     0.72900
Zr1875     Zr  0.75113107  0.79932900  0.19148824     2.54700
O1876       O  0.75011677  0.85798572  0.18949898    -0.80300
O1877       O  0.75160130  0.79648227  0.12206387    -0.93700
Zr1878     Zr  0.75195234  0.80157384  0.30484181     2.64700
O1879       O  0.75294901  0.86024781  0.30341946    -0.98600
O1880       O  0.75163361  0.80086498  0.37431498    -0.80700
O1881       O  0.77421236  0.80132811  0.24775288    -0.84100
O1882       O  0.72882762  0.80120144  0.24849531    -2.18800
O1883       O  0.71160808  0.68793455  0.17574549    -0.67400
O1884       O  0.68422812  0.71595569  0.20995787    -0.52000
C1885       C  0.69024315  0.69470268  0.18502724     0.71300
O1886       O  0.79159217  0.68686674  0.32151939    -0.60400
O1887       O  0.81867677  0.71637276  0.28867779    -0.52300
C1888       C  0.81287270  0.69389224  0.31213377     0.73100
O1889       O  0.71263490  0.68841976  0.32531573    -0.71800
O1890       O  0.68493602  0.71709088  0.29266066    -0.50400
C1891       C  0.69115688  0.69533709  0.31685941     0.74500
O1892       O  0.79109318  0.68579897  0.17734186    -0.67100
O1893       O  0.81837741  0.71632401  0.20847577    -0.54300
C1894       C  0.81248584  0.69354389  0.18545160     0.72900
Zr1895     Zr  0.75143321  0.70385992  0.19398743     2.77500
O1896       O  0.75127839  0.64519707  0.19766577    -0.97800
O1897       O  0.75235599  0.70467075  0.12448963    -0.78600
Zr1898     Zr  0.75201781  0.70641669  0.30781477     2.70100
O1899       O  0.75241198  0.64814713  0.31598167    -0.79900
O1900       O  0.75339773  0.71543558  0.37649420    -0.99000
Zr1901     Zr  0.79654284  0.75294792  0.24869195     2.21500
Zr1902     Zr  0.70636985  0.75265870  0.25025224     2.11100
O1903       O  0.72914356  0.70435967  0.25115765    -2.47700
O1904       O  0.77419590  0.70462093  0.25061003    -0.79700
O1905       O  0.72825953  0.75148697  0.19219700    -0.71900
O1906       O  0.77505717  0.75399062  0.30708640    -2.32800
O1907       O  0.77418467  0.75170159  0.19116602    -2.29100
O1908       O  0.72885979  0.75396012  0.30770139    -0.73600
H1909       H  0.71878255  0.81997402  0.24810100     0.78400
H1910       H  0.78547095  0.75432647  0.32889721     0.79400
H1911       H  0.71914424  0.68556293  0.25168597     0.81700
H1912       H  0.78431953  0.75135264  0.16908508     0.79300
H1913       H  0.76751855  0.79336600  0.38170679     0.42300
H1914       H  0.73878379  0.72746529  0.38226660     0.41300
H1915       H  0.74967090  0.63954402  0.28998646     0.41000
H1916       H  0.73771085  0.63981636  0.21416336     0.38900
H1917       H  0.74183612  0.72270996  0.11729860     0.42000
H1918       H  0.76542739  0.78293546  0.11582568     0.36800
H1919       H  0.76010877  0.86483813  0.21120988     0.42900
H1920       H  0.73938583  0.86657478  0.28731822     0.39300
H1921       H  0.74650098  0.63801169  0.17184090     0.44300
H1922       H  0.75614023  0.81844237  0.11383782     0.43000
H1923       H  0.74848806  0.86686255  0.32958718     0.43100
H1924       H  0.75084414  0.69382735  0.38776228     0.43500
C1925       C  0.58199145  0.58090235  0.07959645    -0.01400
C1926       C  0.60292140  0.58620726  0.05954375    -0.09400
C1927       C  0.62084703  0.60500604  0.07522535    -0.18300
C1928       C  0.61850984  0.61890460  0.11193525     0.04100
C1929       C  0.59743465  0.61277772  0.13250124     0.18300
C1930       C  0.57936287  0.59431421  0.11605339    -0.19700
C1931       C  0.59452803  0.62501862  0.16943251    -0.20900
C1932       C  0.61206492  0.64347791  0.18641384    -0.19500
C1933       C  0.63283936  0.65048409  0.16670825     0.19700
C1934       C  0.63634771  0.63840891  0.12910754     0.01800
C1935       C  0.65757152  0.64641058  0.11037630    -0.14200
C1936       C  0.67478451  0.66482238  0.12856465    -0.11900
C1937       C  0.67137789  0.67634155  0.16570847     0.01400
C1938       C  0.65022466  0.66938243  0.18449677    -0.24100
H1939       H  0.60531951  0.57620339  0.03122735     0.09400
H1940       H  0.63633243  0.60802472  0.05793119     0.12900
H1941       H  0.56329467  0.59002845  0.13189898     0.11700
H1942       H  0.57858456  0.62020576  0.18536222     0.12900
H1943       H  0.60930623  0.65247309  0.21512188     0.11900
H1944       H  0.66147119  0.63879808  0.08167950     0.09000
H1945       H  0.69087957  0.67021653  0.11333886     0.12200
H1946       H  0.64750482  0.67808611  0.21336386     0.14100
C1947       C  0.58161450  0.57950727  0.41515892    -0.01400
C1948       C  0.60492806  0.57429143  0.42660717    -0.09400
C1949       C  0.62319655  0.59271063  0.41169747    -0.18300
C1950       C  0.61881141  0.61723840  0.38459770     0.04100
C1951       C  0.59521232  0.62211639  0.37243136     0.18300
C1952       C  0.57692223  0.60343107  0.38781924    -0.19700
C1953       C  0.59000639  0.64566125  0.34504701    -0.20900
C1954       C  0.60777117  0.66452290  0.32944095    -0.19500
C1955       C  0.63114177  0.66053204  0.34112723     0.19700
C1956       C  0.63699515  0.63697616  0.36905515     0.01800
C1957       C  0.66080514  0.63426801  0.38026682    -0.14200
C1958       C  0.67809840  0.65355466  0.36380496    -0.11900
C1959       C  0.67238010  0.67630993  0.33569147     0.01400
C1960       C  0.64874676  0.67986286  0.32481952    -0.24100
H1961       H  0.60918089  0.55601605  0.44761158     0.09400
H1962       H  0.64054512  0.58704742  0.42204819     0.12900
H1963       H  0.55898675  0.60770755  0.37857276     0.11700
H1964       H  0.57207270  0.64945550  0.33553776     0.12900
H1965       H  0.60318644  0.68242105  0.30813385     0.11900
H1966       H  0.66673282  0.61747691  0.40166519     0.09000
H1967       H  0.69612908  0.65036013  0.37306552     0.12200
H1968       H  0.64400729  0.69739525  0.30316646     0.14100
C1969       C  0.58193208  0.92737014  0.08337982    -0.01400
C1970       C  0.60526554  0.93144460  0.07153743    -0.09400
C1971       C  0.62330277  0.91284606  0.08712358    -0.18300
C1972       C  0.61864115  0.88924191  0.11526599     0.04100
C1973       C  0.59505352  0.88561881  0.12788246     0.18300
C1974       C  0.57702569  0.90450387  0.11188582    -0.19700
C1975       C  0.58956873  0.86300368  0.15619973    -0.20900
C1976       C  0.60703060  0.84373757  0.17218648    -0.19500
C1977       C  0.63038264  0.84636121  0.15997726     0.19700
C1978       C  0.63650318  0.86908457  0.13123499     0.01800
C1979       C  0.66022617  0.87045462  0.11947773    -0.14200
C1980       C  0.67716936  0.85054263  0.13589196    -0.11900
C1981       C  0.67125192  0.82849015  0.16467414     0.01400
C1982       C  0.64769257  0.82641658  0.17639496    -0.24100
H1983       H  0.60968462  0.94889279  0.04968015     0.09400
H1984       H  0.64068913  0.91756363  0.07637339     0.12900
H1985       H  0.55908573  0.90112744  0.12151862     0.12700
H1986       H  0.57162953  0.86017631  0.16605087     0.12900
H1987       H  0.60220403  0.82651595  0.19409665     0.11900
H1988       H  0.66635150  0.88661164  0.09758531     0.09000
H1989       H  0.69513873  0.85274693  0.12603506     0.12200
H1990       H  0.64280766  0.80954440  0.19866185     0.14100
C1991       C  0.92218153  0.58109527  0.08164589    -0.01400
C1992       C  0.92814179  0.60384292  0.10964343    -0.09400
C1993       C  0.91097121  0.62267555  0.12708161    -0.18300
C1994       C  0.88700295  0.61945638  0.11712603     0.04100
C1995       C  0.88093733  0.59621476  0.08891856     0.18300
C1996       C  0.89845292  0.57737701  0.07150618    -0.19700
C1997       C  0.85742215  0.59192747  0.07823858    -0.20900
C1998       C  0.83973066  0.61009254  0.09518587    -0.19500
C1999       C  0.84512902  0.63320215  0.12299526     0.19700
C2000       C  0.86886220  0.63838692  0.13419993     0.01800
C2001       C  0.87339281  0.66237876  0.16193466    -0.14200
C2002       C  0.85515838  0.68022399  0.17802209    -0.11900
C2003       C  0.83172293  0.67482519  0.16731778     0.01400
C2004       C  0.82688887  0.65121799  0.13965246    -0.24100
H2005       H  0.94627023  0.60726639  0.11825908     0.09400
H2006       H  0.91711418  0.63946468  0.14831274     0.12900
H2007       H  0.89355551  0.55993720  0.04984122     0.11700
H2008       H  0.85266141  0.57430932  0.05671199     0.12900
H2009       H  0.82168506  0.60607974  0.08640491     0.11900
H2010       H  0.89083058  0.66808024  0.17185364     0.09000
H2011       H  0.85953169  0.69823564  0.19927509     0.12200
H2012       H  0.80887509  0.64681549  0.13093058     0.14100
C2013       C  0.92198966  0.92453246  0.41684777    -0.01400
C2014       C  0.92729785  0.90617816  0.38439670    -0.09400
C2015       C  0.91020783  0.88728981  0.36675434    -0.18300
C2016       C  0.88702285  0.88596690  0.38110921     0.04100
C2017       C  0.88162719  0.90473761  0.41394653     0.18300
C2018       C  0.89904056  0.92375905  0.43141653    -0.19700
C2019       C  0.85887388  0.90447090  0.42910042    -0.20900
C2020       C  0.84123424  0.88624369  0.41205310    -0.19500
C2021       C  0.84596724  0.86761128  0.37963635     0.19700
C2022       C  0.86898902  0.86691057  0.36390635     0.01800
C2023       C  0.87293257  0.84718589  0.33160119    -0.14200
C2024       C  0.85474659  0.82933205  0.31535067    -0.11900
C2025       C  0.83200133  0.83048781  0.33053050     0.01400
C2026       C  0.82776059  0.84967691  0.36278769    -0.24100
H2027       H  0.94481993  0.90647918  0.37231319     0.09400
H2028       H  0.91576264  0.87414927  0.34183815     0.12900
H2029       H  0.89474973  0.93771582  0.45664750     0.11700
H2030       H  0.85464476  0.91864170  0.45417206     0.12900
H2031       H  0.82374801  0.88675264  0.42430095     0.11900
H2032       H  0.88985232  0.84493785  0.31812037     0.09000
H2033       H  0.85852928  0.81480001  0.29039699     0.12200
H2034       H  0.81026412  0.85055540  0.37500748     0.14100
C2035       C  0.92210659  0.57990836  0.41449973    -0.01400
C2036       C  0.92712174  0.59721736  0.38112212    -0.09400
C2037       C  0.90993473  0.61587239  0.36333311    -0.18300
C2038       C  0.88699750  0.61809206  0.37857398     0.04100
C2039       C  0.88191366  0.60030306  0.41230309     0.18300
C2040       C  0.89937339  0.58140502  0.42978922    -0.19700
C2041       C  0.85946022  0.60158026  0.42849760    -0.20900
C2042       C  0.84181348  0.61995321  0.41171587    -0.19500
C2043       C  0.84624072  0.63770178  0.37850134     0.19700
C2044       C  0.86894830  0.63727929  0.36159258     0.01800
C2045       C  0.87259922  0.65620876  0.32852771    -0.14200
C2046       C  0.85445626  0.67455286  0.31285939    -0.11900
C2047       C  0.83203404  0.67459604  0.32933785     0.01400
C2048       C  0.82805927  0.65600662  0.36215721    -0.24100
H2049       H  0.94448392  0.59631083  0.36848500     0.09400
H2050       H  0.91523134  0.62822978  0.33771097     0.12900
H2051       H  0.89532788  0.56825756  0.45573073     0.11700
H2052       H  0.85549224  0.58818850  0.45427786     0.12900
H2053       H  0.82457690  0.62032896  0.42486628     0.11900
H2054       H  0.88926745  0.65751193  0.31407634     0.09000
H2055       H  0.85800192  0.68855014  0.28738671     0.12200
H2056       H  0.81081744  0.65603004  0.37533291     0.14100
C2057       C  0.67260181  0.83124866  0.33334116    -0.01400
C2058       C  0.67812160  0.86196157  0.34747644    -0.09400
C2059       C  0.66085294  0.88161861  0.36341739    -0.18300
C2060       C  0.63727034  0.87113954  0.36602003     0.04100
C2061       C  0.63180314  0.83968542  0.35238477     0.18300
C2062       C  0.64937026  0.82020291  0.33607921    -0.19700
C2063       C  0.60880629  0.82791204  0.35494436    -0.20900
C2064       C  0.59103986  0.84676657  0.37055744    -0.19500
C2065       C  0.59579532  0.87791706  0.38390386     0.19700
C2066       C  0.61896058  0.89064346  0.38177055     0.01800
C2067       C  0.62274828  0.92229888  0.39560276    -0.14200
C2068       C  0.60446568  0.94011884  0.41178196    -0.11900
C2069       C  0.58173306  0.92730818  0.41428162     0.01400
C2070       C  0.57750127  0.89630262  0.39977168    -0.24100
H2071       H  0.69589461  0.87122247  0.34561817     0.09400
H2072       H  0.66658125  0.90490303  0.37335876     0.12900
H2073       H  0.64493061  0.79637815  0.32553649     0.11700
H2074       H  0.60451692  0.80393368  0.34477870     0.12900
H2075       H  0.57342520  0.83689708  0.37219425     0.11900
H2076       H  0.63964795  0.93397233  0.39458394     0.09000
H2077       H  0.60817945  0.96412795  0.42238834     0.12200
H2078       H  0.55999743  0.88606741  0.40164700     0.14100
C2079       C  0.92158966  0.92577767  0.08218476    -0.01400
C2080       C  0.89806592  0.93295519  0.07364844    -0.09400
C2081       C  0.87973681  0.91500821  0.08935319    -0.18300
C2082       C  0.88424976  0.88888663  0.11425012     0.04100
C2083       C  0.90809216  0.88175007  0.12315706     0.18300
C2084       C  0.92641526  0.90014809  0.10725072    -0.19700
C2085       C  0.91352679  0.85612239  0.14766181    -0.20900
C2086       C  0.89578664  0.83733001  0.16348373    -0.19500
C2087       C  0.87214597  0.84370686  0.15527858     0.19700
C2088       C  0.86600772  0.86955180  0.13050412     0.01800
C2089       C  0.84187352  0.87484896  0.12306085    -0.14200
C2090       C  0.82463510  0.85559697  0.13982045    -0.11900
C2091       C  0.83069610  0.83037564  0.16465128     0.01400
C2092       C  0.85458647  0.82446095  0.17195834    -0.24100
H2093       H  0.89367603  0.95253592  0.05445074     0.09400
H2094       H  0.86223592  0.92217247  0.08120994     0.12900
H2095       H  0.94449203  0.89422110  0.11418584     0.11700
H2096       H  0.93165090  0.85051298  0.15459086     0.12900
H2097       H  0.90060254  0.81766629  0.18233002     0.11900
H2098       H  0.83565910  0.89375081  0.10453292     0.09000
H2099       H  0.80638273  0.86080619  0.13344670     0.12200
H2100       H  0.85959926  0.80501047  0.19099222     0.14100
O2101       O  0.96198519  0.93684739  0.92724309    -0.75400
O2102       O  0.93439729  0.96631148  0.95902611    -0.54300
C2103       C  0.94056202  0.94393498  0.93563034     0.78300
O2104       O  0.54149668  0.93956091  0.57460017    -0.60000
O2105       O  0.56856620  0.96747375  0.53988169    -0.53000
C2106       C  0.56280694  0.94619560  0.56494209     0.70300
O2107       O  0.96235807  0.93706975  0.57304421    -0.74600
O2108       O  0.93516163  0.96687869  0.54074826    -0.55100
C2109       C  0.94099546  0.94445872  0.56436323     0.76300
O2110       O  0.54122873  0.93784819  0.92505117    -0.59700
O2111       O  0.56854029  0.96798381  0.95672980    -0.52800
C2112       C  0.56260210  0.94572557  0.93302005     0.72900
Zr2113     Zr  0.00164790  0.95482406  0.94266830     2.54700
O2114       O  0.00238355  0.89617185  0.94428594    -0.80300
O2115       O  0.50097377  0.95720895  0.87328877    -0.93700
Zr2116     Zr  0.00175249  0.95611506  0.55680815     2.64700
O2117       O  0.00165656  0.89751083  0.56063591    -0.98600
O2118       O  0.50125254  0.96143907  0.62611259    -0.80700
O2119       O  0.97914565  0.95479661  0.99961624    -0.84100
O2120       O  0.52404810  0.95461566  0.99973329    -2.18800
O2121       O  0.54113439  0.56770340  0.92346137    -0.67400
O2122       O  0.56821601  0.53869488  0.95699505    -0.52000
C2123       C  0.56245161  0.56060204  0.93272813     0.71300
O2124       O  0.96219478  0.56916790  0.57045496    -0.60400
O2125       O  0.93453288  0.53935934  0.53923997    -0.52300
C2126       C  0.94073931  0.56191480  0.56237537     0.73100
O2127       O  0.54150515  0.56840246  0.57263478    -0.71800
O2128       O  0.56850638  0.54048833  0.53763046    -0.50400
C2129       C  0.56274833  0.56194690  0.56243306     0.74500
O2130       O  0.96213237  0.56793827  0.92470996    -0.67100
O2131       O  0.93470937  0.53933738  0.95792986    -0.54300
C2132       C  0.94077840  0.56105533  0.93359788     0.72900
Zr2133     Zr  0.50157756  0.55010747  0.94103023     2.77500
O2134       O  0.50082045  0.60884042  0.93835920    -0.97800
O2135       O  0.50074838  0.54454525  0.87183173    -0.78600
Zr2136     Zr  0.50185927  0.55120067  0.55507879     2.70100
O2137       O  0.50221973  0.60989719  0.55478173    -0.79900
O2138       O  0.50141415  0.54881486  0.62453558    -0.99000
Zr2139     Zr  0.95662924  0.50289443  0.49895514     2.21500
Zr2140     Zr  0.54642233  0.00307627  0.99860596     2.11100
O2141       O  0.52406609  0.55146746  0.49798036    -2.47700
O2142       O  0.97910737  0.55122069  0.49813101    -0.79700
O2143       O  0.52452247  0.00243895  0.94073381    -0.71900
O2144       O  0.97874871  0.50367893  0.55689957    -2.32800
O2145       O  0.97857634  0.50245594  0.94093653    -2.29100
O2146       O  0.52485019  0.00374312  0.55689262    -0.73600
H2147       H  0.53414511  0.93599687  0.49989243     0.78400
H2148       H  0.96855779  0.50393645  0.57893659     0.79400
H2149       H  0.53411030  0.57023209  0.99760521     0.81700
H2150       H  0.96827076  0.50221878  0.91900285     0.79300
H2151       H  0.00749297  0.94168825  0.63588478     0.42300
H2152       H  0.51410684  0.53344225  0.63117580     0.41300
H2153       H  0.00279394  0.61587303  0.52733905     0.41000
H2154       H  0.51450662  0.61588488  0.95375130     0.38900
H2155       H  0.51400632  0.52989848  0.86594014     0.42000
H2156       H  0.98494393  0.96205247  0.86605400     0.36800
H2157       H  0.00188022  0.89074529  0.97179583     0.42900
H2158       H  0.51487893  0.89068284  0.54326426     0.39300
H2159       H  0.50510450  0.61416835  0.91170575     0.44300
H2160       H  0.00262745  0.93309855  0.86546161     0.43000
H2161       H  0.00778508  0.89254128  0.58644668     0.43100
H2162       H  0.50747985  0.57007774  0.63280422     0.43500
O2163       O  0.79059557  0.81785945  0.67528701    -0.75400
O2164       O  0.81841396  0.78874649  0.70699182    -0.54300
C2165       C  0.81210439  0.81093790  0.68342536     0.78300
O2166       O  0.71265054  0.81937954  0.82225737    -0.60000
O2167       O  0.68480115  0.78895928  0.79227530    -0.53000
C2168       C  0.69116791  0.81178146  0.81499467     0.70300
O2169       O  0.79148447  0.81981216  0.82090493    -0.74600
O2170       O  0.81853011  0.78967061  0.78882201    -0.55100
C2171       C  0.81275245  0.81219626  0.81224772     0.76300
O2172       O  0.71138924  0.81520027  0.67368043    -0.59700
O2173       O  0.68399902  0.78821740  0.70875832    -0.52800
C2174       C  0.69000913  0.80910369  0.68336987     0.72900
Zr2175     Zr  0.75114764  0.79941255  0.69150632     2.54700
O2176       O  0.74997714  0.85807021  0.69029219    -0.80300
O2177       O  0.75175397  0.79697322  0.62206056    -0.93700
Zr2178     Zr  0.75198586  0.80173345  0.80482165     2.64700
O2179       O  0.75284632  0.86041680  0.80335943    -0.98600
O2180       O  0.75176079  0.80109329  0.87429839    -0.80700
O2181       O  0.77424998  0.80143564  0.74772073    -0.84100
O2182       O  0.72885420  0.80132557  0.74852058    -2.18800
O2183       O  0.71147974  0.68816977  0.67590872    -0.67400
O2184       O  0.68415883  0.71606741  0.71037930    -0.52000
C2185       C  0.69012798  0.69489448  0.68533198     0.71300
O2186       O  0.79169323  0.68714724  0.82170788    -0.60400
O2187       O  0.81874032  0.71656037  0.78867766    -0.52300
C2188       C  0.81296199  0.69414360  0.81223297     0.73100
O2189       O  0.71270211  0.68878745  0.82556977    -0.71800
O2190       O  0.68496918  0.71736662  0.79287083    -0.50400
C2191       C  0.69121298  0.69568458  0.81712971     0.74500
O2192       O  0.79100250  0.68567020  0.67743064    -0.67100
O2193       O  0.81831990  0.71626025  0.70841370    -0.54300
C2194       C  0.81240644  0.69339013  0.68551689     0.72900
Zr2195     Zr  0.75137562  0.70400060  0.69393962     2.77500
O2196       O  0.75113106  0.64531939  0.69707862    -0.97800
O2197       O  0.75235894  0.70549483  0.62444210    -0.78600
Zr2198     Zr  0.75211429  0.70655877  0.80782803     2.70100
O2199       O  0.75281138  0.64824450  0.81555748    -0.79900
O2200       O  0.75361266  0.71557832  0.87649497    -0.99000
Zr2201     Zr  0.79656720  0.75303759  0.74862361     2.21500
Zr2202     Zr  0.70640826  0.75280893  0.75041609     2.11100
O2203       O  0.72918444  0.70450010  0.75122906    -2.47700
O2204       O  0.77418823  0.70476576  0.75052389    -0.79700
O2205       O  0.72821440  0.75162567  0.69228403    -0.71900
O2206       O  0.77511922  0.75415281  0.80703096    -2.32800
O2207       O  0.77417454  0.75178433  0.69113876    -2.29100
O2208       O  0.72894623  0.75409355  0.80781411    -0.73600
H2209       H  0.71880507  0.82009311  0.74810508     0.78400
H2210       H  0.78555042  0.75451049  0.82881881     0.79400
H2211       H  0.71918371  0.68570530  0.75181352     0.81700
H2212       H  0.78429613  0.75141957  0.66904055     0.79300
H2213       H  0.76760930  0.79341731  0.88164192     0.42300
H2214       H  0.73868876  0.72677952  0.88250278     0.41300
H2215       H  0.75245418  0.63977764  0.78913308     0.41000
H2216       H  0.73816415  0.63993334  0.71480088     0.38900
H2217       H  0.74111153  0.72273657  0.61740725     0.42000
H2218       H  0.76546603  0.78321837  0.61579421     0.36800
H2219       H  0.75948163  0.86474197  0.71264899     0.42900
H2220       H  0.73928052  0.86668418  0.78722992     0.39300
H2221       H  0.74540383  0.63831923  0.67169395     0.44300
H2222       H  0.75651727  0.81889819  0.61404001     0.43000
H2223       H  0.74835265  0.86702996  0.82951286     0.43100
H2224       H  0.75177260  0.69383596  0.88776790     0.43500
C2225       C  0.58189776  0.58099586  0.57993305    -0.01400
C2226       C  0.60283394  0.58630237  0.55990564    -0.09400
C2227       C  0.62074513  0.60513011  0.57558404    -0.18300
C2228       C  0.61839016  0.61906570  0.61227215     0.04100
C2229       C  0.59730898  0.61294445  0.63282346     0.18300
C2230       C  0.57925322  0.59443278  0.61638396    -0.19700
C2231       C  0.59437097  0.62527175  0.66971109    -0.20900
C2232       C  0.61187313  0.64382790  0.68664815    -0.19500
C2233       C  0.63266102  0.65080641  0.66696504     0.19700
C2234       C  0.63620966  0.63862057  0.62942336     0.01800
C2235       C  0.65745749  0.64655800  0.61072925    -0.14200
C2236       C  0.67465757  0.66499937  0.62890110    -0.11900
C2237       C  0.67122809  0.67659757  0.66600479     0.01400
C2238       C  0.65003355  0.66974786  0.68473556    -0.24100
H2239       H  0.60524344  0.57628987  0.53159662     0.09400
H2240       H  0.63622673  0.60816404  0.55828606     0.12900
H2241       H  0.56317776  0.59015735  0.63221404     0.11700
H2242       H  0.57842248  0.62047033  0.68563167     0.12900
H2243       H  0.60908361  0.65290053  0.71531416     0.11900
H2244       H  0.66139764  0.63884668  0.58208500     0.09000
H2245       H  0.69077531  0.67032207  0.61370340     0.12200
H2246       H  0.64728315  0.67852946  0.71356174     0.14100
C2247       C  0.58174902  0.57945848  0.91509443    -0.01400
C2248       C  0.60507009  0.57428780  0.92656648    -0.09400
C2249       C  0.62333410  0.59277061  0.91170206    -0.18300
C2250       C  0.61893693  0.61733777  0.88464992     0.04100
C2251       C  0.59533997  0.62216085  0.87244874     0.18300
C2252       C  0.57706121  0.60340671  0.88777578    -0.19700
C2253       C  0.59011783  0.64573269  0.84510067    -0.20900
C2254       C  0.60786039  0.66468295  0.82957488    -0.19500
C2255       C  0.63122743  0.66075942  0.84130909     0.19700
C2256       C  0.63709933  0.63717808  0.86920023     0.01800
C2257       C  0.66090181  0.63456003  0.88048545    -0.14200
C2258       C  0.67817454  0.65393487  0.86410843    -0.11900
C2259       C  0.67244378  0.67667942  0.83599691     0.01400
C2260       C  0.64881177  0.68017355  0.82507884    -0.24100
H2261       H  0.60932835  0.55600210  0.94755468     0.09400
H2262       H  0.64068883  0.58713530  0.92205311     0.12900
H2263       H  0.55912854  0.60765990  0.87850542     0.11700
H2264       H  0.57218553  0.64948335  0.83556159     0.12900
H2265       H  0.60325980  0.68259921  0.80829715     0.11900
H2266       H  0.66683632  0.61776733  0.90187684     0.09000
H2267       H  0.69620320  0.65079540  0.87340567     0.12200
H2268       H  0.64405989  0.69770476  0.80342975     0.14100
C2269       C  0.58200008  0.92743776  0.58326761    -0.01400
C2270       C  0.60532224  0.93139341  0.57128812    -0.09400
C2271       C  0.62336842  0.91280402  0.58689186    -0.18300
C2272       C  0.61873018  0.88932031  0.61519050     0.04100
C2273       C  0.59514660  0.88574647  0.62785014     0.18300
C2274       C  0.57711776  0.90465407  0.61187675    -0.19700
C2275       C  0.58965436  0.86311879  0.65614902    -0.20900
C2276       C  0.60708774  0.84373119  0.67200682    -0.19500
C2277       C  0.63044124  0.84634340  0.65981442     0.19700
C2278       C  0.63659555  0.86918511  0.63121743     0.01800
C2279       C  0.66035959  0.87072736  0.61971177    -0.14200
C2280       C  0.67728339  0.85077231  0.63610958    -0.11900
C2281       C  0.67130697  0.82849037  0.66461648     0.01400
C2282       C  0.64772256  0.82630550  0.67615705    -0.24100
H2283       H  0.60972351  0.94873681  0.54930487     0.09400
H2284       H  0.64073335  0.91737729  0.57596388     0.12900
H2285       H  0.55918760  0.90133451  0.62158278     0.12700
H2286       H  0.57171890  0.86032620  0.66602943     0.12900
H2287       H  0.60224147  0.82645383  0.69384384     0.11900
H2288       H  0.66654269  0.88710978  0.59809921     0.09000
H2289       H  0.69528692  0.85314010  0.62647097     0.12200
H2290       H  0.64279959  0.80930175  0.69826154     0.14100
C2291       C  0.92208345  0.58122101  0.58107312    -0.01400
C2292       C  0.92808443  0.60409769  0.60890027    -0.09400
C2293       C  0.91092440  0.62286279  0.62647367    -0.18300
C2294       C  0.88692257  0.61944841  0.61682863     0.04100
C2295       C  0.88083417  0.59623838  0.58859318     0.18300
C2296       C  0.89833839  0.57745118  0.57106318    -0.19700
C2297       C  0.85730431  0.59190945  0.57802832    -0.20900
C2298       C  0.83961996  0.60998667  0.59512673    -0.19500
C2299       C  0.84503114  0.63301069  0.62302986     0.19700
C2300       C  0.86877368  0.63819292  0.63418521     0.01800
C2301       C  0.87329878  0.66198307  0.66216960    -0.14200
C2302       C  0.85506668  0.67979828  0.67833378    -0.11900
C2303       C  0.83163378  0.67454207  0.66750005     0.01400
C2304       C  0.82679425  0.65098085  0.63977954    -0.24100
H2305       H  0.94623402  0.60762814  0.61733478     0.09400
H2306       H  0.91710342  0.63976975  0.64754533     0.12900
H2307       H  0.89341672  0.55997862  0.54944909     0.11700
H2308       H  0.85252717  0.57433838  0.55645730     0.12900
H2309       H  0.82156638  0.60596649  0.58639550     0.11900
H2310       H  0.89073003  0.66754188  0.67223392     0.09000
H2311       H  0.85944012  0.69769956  0.69971707     0.12200
H2312       H  0.80878067  0.64662855  0.63102324     0.14100
C2313       C  0.92190875  0.92468628  0.91688532    -0.01400
C2314       C  0.92721572  0.90633815  0.88443132    -0.09400
C2315       C  0.91011730  0.88750251  0.86674268    -0.18300
C2316       C  0.88692664  0.88620106  0.88106919     0.04100
C2317       C  0.88152378  0.90496464  0.91390783     0.18300
C2318       C  0.89894769  0.92394401  0.93142324    -0.19700
C2319       C  0.85875263  0.90474235  0.92900046    -0.20900
C2320       C  0.84110461  0.88657633  0.91187756    -0.19500
C2321       C  0.84585448  0.86794175  0.87946691     0.19700
C2322       C  0.86889583  0.86717713  0.86382298     0.01800
C2323       C  0.87286971  0.84741074  0.83156335    -0.14200
C2324       C  0.85469369  0.82958939  0.81525465    -0.11900
C2325       C  0.83193370  0.83080777  0.83034323     0.01400
C2326       C  0.82765497  0.85004536  0.86255293    -0.24100
H2327       H  0.94474193  0.90661820  0.87236395     0.09400
H2328       H  0.91567109  0.87439780  0.84180045     0.12900
H2329       H  0.89465306  0.93790400  0.95664951     0.11700
H2330       H  0.85451537  0.91890882  0.95407176     0.12900
H2331       H  0.82360353  0.88712438  0.92406881     0.11900
H2332       H  0.88981083  0.84508340  0.81817605     0.09000
H2333       H  0.85850127  0.81501283  0.79034749     0.12200
H2334       H  0.81014156  0.85096959  0.87470618     0.14100
C2335       C  0.92205493  0.57977391  0.91437180    -0.01400
C2336       C  0.92704664  0.59686833  0.88082721    -0.09400
C2337       C  0.90987106  0.61551732  0.86298726    -0.18300
C2338       C  0.88697648  0.61794548  0.87835173     0.04100
C2339       C  0.88189586  0.60026537  0.91216453     0.18300
C2340       C  0.89934207  0.58138858  0.92970697    -0.19700
C2341       C  0.85946230  0.60164551  0.92840958    -0.20900
C2342       C  0.84184270  0.62006941  0.91164872    -0.19500
C2343       C  0.84628724  0.63780368  0.87843493     0.19700
C2344       C  0.86896777  0.63724965  0.86143734     0.01800
C2345       C  0.87263979  0.65621569  0.82840463    -0.14200
C2346       C  0.85453261  0.67470535  0.81284698    -0.11900
C2347       C  0.83212957  0.67484135  0.82940171     0.01400
C2348       C  0.82814615  0.65623615  0.86219766    -0.24100
H2349       H  0.94438480  0.59581436  0.86811906     0.09400
H2350       H  0.91513611  0.62770856  0.83723418     0.12900
H2351       H  0.89530702  0.56836900  0.95574337     0.11700
H2352       H  0.85549140  0.58830774  0.95422733     0.12900
H2353       H  0.82462144  0.62053311  0.92484770     0.11900
H2354       H  0.88930215  0.65745099  0.81392248     0.09000
H2355       H  0.85808284  0.68872032  0.78738958     0.12200
H2356       H  0.81092195  0.65633312  0.87543400     0.14100
C2357       C  0.67267777  0.83151006  0.83345020    -0.01400
C2358       C  0.67818924  0.86219897  0.84768807    -0.09400
C2359       C  0.66089509  0.88184993  0.86358820    -0.18300
C2360       C  0.63730172  0.87138361  0.86602662     0.04100
C2361       C  0.63186991  0.83990883  0.85242910     0.18300
C2362       C  0.64945211  0.82045080  0.83615236    -0.19700
C2363       C  0.60889269  0.82807375  0.85500486    -0.20900
C2364       C  0.59110766  0.84687830  0.87061837    -0.19500
C2365       C  0.59581645  0.87806327  0.88386660     0.19700
C2366       C  0.61895082  0.89088955  0.88163118     0.01800
C2367       C  0.62266064  0.92264275  0.89519587    -0.14200
C2368       C  0.60435393  0.94039992  0.91138974    -0.11900
C2369       C  0.58168379  0.92741951  0.91412942     0.01400
C2370       C  0.57750435  0.89637586  0.89975198    -0.24100
H2371       H  0.69597057  0.87144415  0.84593804     0.09400
H2372       H  0.66660967  0.90510146  0.87366735     0.12900
H2373       H  0.64502584  0.79662527  0.82559935     0.11700
H2374       H  0.60463793  0.80407084  0.84488508     0.12900
H2375       H  0.57351314  0.83694825  0.87231517     0.11900
H2376       H  0.63951051  0.93443733  0.89392699     0.09000
H2377       H  0.60799572  0.96448290  0.92182957     0.12200
H2378       H  0.56003429  0.88604997  0.90177461     0.14100
C2379       C  0.92169519  0.92565597  0.58233994    -0.01400
C2380       C  0.89818351  0.93278507  0.57366069    -0.09400
C2381       C  0.87983879  0.91483640  0.58929960    -0.18300
C2382       C  0.88432347  0.88881071  0.61434348     0.04100
C2383       C  0.90815542  0.88171460  0.62337897     0.18300
C2384       C  0.92649617  0.90007135  0.60747417    -0.19700
C2385       C  0.91356271  0.85619704  0.64805446    -0.20900
C2386       C  0.89580671  0.83746170  0.66390633    -0.19500
C2387       C  0.87218127  0.84376985  0.65552958     0.19700
C2388       C  0.86606411  0.86953736  0.63063226     0.01800
C2389       C  0.84193503  0.87482737  0.62312366    -0.14200
C2390       C  0.82468773  0.85555337  0.63981937    -0.11900
C2391       C  0.83074072  0.83033288  0.66465021     0.01400
C2392       C  0.85461766  0.82450866  0.67213853    -0.24100
H2393       H  0.89381466  0.95232167  0.55438773     0.09400
H2394       H  0.86234983  0.92193315  0.58100634     0.12900
H2395       H  0.94456459  0.89417071  0.61449806     0.11700
H2396       H  0.93167709  0.85063325  0.65510045     0.12900
H2397       H  0.90059911  0.81787946  0.68288697     0.11900
H2398       H  0.83573335  0.89373072  0.60458613     0.09000
H2399       H  0.80643848  0.86073289  0.63338600     0.12200
H2400       H  0.85961884  0.80510149  0.69124303     0.14100
loop_ 
_geom_bond_atom_site_label_1 
_geom_bond_atom_site_label_2 
_geom_bond_distance 
_geom_bond_site_symmetry_2 
_ccdc_geom_bond_type 
O1          Zr13   2.436       .  S
O1            C3   1.288       .  A
O2         Zr939   2.425       .  S
O2            C3   1.287       .  A
C3          C213   1.480       .  S
O4        Zr1216   2.443       .  S
O4            C6   1.288       .  A
O5         Zr340   2.422   1_554  S
O5            C6   1.287       .  A
C6          C169   1.485       .  S
O7          Zr16   2.444       .  S
O7            C9   1.289       .  A
O8         Zr639   2.423   1_554  S
O8            C9   1.287       .  A
C9          C279   1.487       .  S
O10       Zr1213   2.444       .  S
O10          C12   1.289       .  A
O11         Zr40   2.422       .  S
O11          C12   1.287       .  A
C12         C269   1.481       .  S
Zr13       O1210   2.444       .  S
Zr13         O14   2.434       .  S
Zr13       O1215   2.437       .  S
Zr13         O19   2.372       .  S
Zr13       O1220   2.367       .  S
Zr13       O1243   2.371       .  S
Zr13        O645   2.373       .  S
O14          H57   0.990       .  S
O15       Zr1213   2.437       .  S
O15        H1256   0.992   1_455  S
O15        H1260   0.989       .  S
Zr16       O1204   2.442       .  S
Zr16         O17   2.435       .  S
Zr16       O1218   2.436       .  S
Zr16       O1520   2.373   1_554  S
Zr16        O319   2.373   1_554  S
Zr16        O644   2.371       .  S
Zr16       O1246   2.375       .  S
O17          H61   0.990       .  S
O17        H1258   0.990       .  S
O18       Zr1216   2.436       .  S
O18        H1251   0.990   1_455  S
O19        Zr316   2.372       .  S
O19        Zr939   2.378       .  S
O20         Zr40   2.381       .  S
O20       Zr1213   2.368       .  S
O20       Zr1516   2.374       .  S
O20         H347   0.965       .  S
O21         Zr33   2.442       .  S
O21          C23   1.288       .  A
O22        Zr640   2.415       .  S
O22          C23   1.286       .  A
C23         C147   1.482       .  S
O24       Zr1236   2.433       .  S
O24          C26   1.288       .  A
O25         Zr39   2.419   1_554  S
O25          C26   1.286       .  A
C26         C191   1.481       .  S
O27         Zr36   2.444       .  S
O27          C29   1.289       .  A
O28        Zr940   2.417   1_554  S
O28          C29   1.286       .  A
C29         C125   1.478       .  S
O30       Zr1233   2.426       .  S
O30          C32   1.286       .  A
O31        Zr339   2.427       .  S
O31          C32   1.288       .  A
C32         C235   1.478       .  S
Zr33       O1230   2.428   1_455  S
Zr33         O34   2.438       .  S
Zr33         O35   2.434       .  S
Zr33        O341   2.366       .  S
Zr33       O1542   2.372   1_455  S
Zr33       O1245   2.372   1_455  S
Zr33        O643   2.371       .  S
O34          H54   0.990       .  S
O34          H59   0.990       .  S
O35          H55   0.990       .  S
Zr36       O1224   2.433   1_455  S
Zr36         O37   2.434       .  S
Zr36         O38   2.434       .  S
Zr36         O41   2.366   1_554  S
Zr36       O1242   2.372   1_454  S
Zr36        O646   2.371       .  S
Zr36       O1244   2.373   1_455  S
O37        H1253   0.990       .  S
O38          H52   0.990       .  S
O38          H62   0.990       .  S
Zr39        O902   2.425   1_545  S
Zr39        O608   2.424   1_546  S
Zr39        O331   2.427       .  S
Zr39         O42   2.378       .  S
Zr39         O44   2.386   1_556  S
Zr39        O919   2.377   1_545  S
Zr39        O345   2.385       .  S
Zr40        O305   2.421       .  S
Zr40        O622   2.414       .  S
Zr40        O928   2.419       .  S
Zr40         O43   2.378       .  S
Zr40        O941   2.379       .  S
Zr40        O346   2.382       .  S
O41        Zr333   2.367       .  S
O41        Zr940   2.378       .  S
O41         H349   0.965       .  S
O42       Zr1533   2.373       .  S
O42       Zr1236   2.372   1_556  S
O43       Zr1213   2.370       .  S
O43        Zr633   2.371       .  S
O44        Zr616   2.370   1_545  S
O44       Zr1236   2.372       .  S
O44          H48   0.966       .  S
O45        Zr613   2.372   1_545  S
O45       Zr1233   2.372       .  S
O45        Zr339   2.386       .  S
O45          H50   0.966       .  S
O46       Zr1216   2.375       .  S
O46        Zr636   2.372       .  S
O46        Zr340   2.382   1_554  S
H47         O320   0.965       .  S
H49         O341   0.965       .  S
H51        O1218   0.990       .  S
H53        O1237   0.990       .  S
H56        O1215   0.992       .  S
H58        O1217   0.990       .  S
H60        O1215   0.989       .  S
O63         Zr75   2.439       .  S
O63          C65   1.288       .  A
O64        Zr101   2.423       .  S
O64          C65   1.287       .  A
C65         C291   1.485       .  S
O66         Zr78   2.432       .  S
O66          C68   1.287       .  A
O67        Zr102   2.429       .  S
O67          C68   1.288       .  A
C68         C257   1.480       .  S
O69         Zr78   2.435       .  S
O69          C71   1.287       .  A
O70        Zr101   2.417       .  S
O70          C71   1.286       .  A
C71         C225   1.479       .  S
O72         Zr75   2.436       .  S
O72          C74   1.288       .  A
O73        Zr102   2.428       .  S
O73          C74   1.288       .  A
C74         C181   1.486       .  S
Zr75         O76   2.434       .  S
Zr75         O77   2.434       .  S
Zr75         O81   2.367       .  S
Zr75         O82   2.368       .  S
Zr75        O105   2.372       .  S
Zr75        O107   2.370       .  S
O76         H119   0.990       .  S
O77         H118   0.991       .  S
O77         H122   0.990       .  S
Zr78         O79   2.435       .  S
Zr78         O80   2.434       .  S
Zr78         O82   2.369       .  S
Zr78         O81   2.368       .  S
Zr78        O106   2.373       .  S
Zr78        O108   2.374       .  S
O79         H120   0.990       .  S
O79         H123   0.990       .  S
O80         H113   0.989       .  S
O81        Zr101   2.375       .  S
O82        Zr102   2.385       .  S
O82         H109   0.966       .  S
O83         Zr95   2.444       .  S
O83          C85   1.289       .  A
O84        Zr102   2.425       .  S
O84          C85   1.287       .  A
C85         C137   1.478       .  S
O86         Zr98   2.440       .  S
O86          C88   1.288       .  A
O87        Zr101   2.416       .  S
O87          C88   1.286       .  A
C88         C247   1.480       .  S
O89         Zr98   2.441       .  S
O89          C91   1.289       .  A
O90        Zr102   2.424       .  S
O90          C91   1.287       .  A
C91         C159   1.484       .  S
O92         Zr95   2.448       .  S
O92          C94   1.290       .  A
O93        Zr101   2.416       .  S
O93          C94   1.286       .  A
C94         C203   1.485       .  S
Zr95         O96   2.436       .  S
Zr95         O97   2.435       .  S
Zr95        O103   2.372       .  S
Zr95        O104   2.367       .  S
Zr95        O107   2.371       .  S
Zr95        O105   2.374       .  S
O96         H116   0.990       .  S
O96         H121   0.990       .  S
O97         H117   0.990       .  S
Zr98         O99   2.434       .  S
Zr98        O100   2.435       .  S
Zr98        O104   2.370       .  S
Zr98        O103   2.373       .  S
Zr98        O108   2.372       .  S
Zr98        O106   2.368       .  S
O99         H115   0.990       .  S
O100        H114   0.990       .  S
O100        H124   0.990       .  S
Zr101       O104   2.374       .  S
Zr101       O106   2.384       .  S
Zr101       O107   2.382       .  S
Zr102       O103   2.385       .  S
Zr102       O105   2.386       .  S
Zr102       O108   2.383       .  S
O103        H111   0.965       .  S
O106        H110   0.966       .  S
O107        H112   0.965       .  S
C125        C126   1.400       .  A
C125        C130   1.401       .  A
C126        C127   1.395       .  A
C126        H139   1.084       .  S
C127        C128   1.415       .  A
C127        H140   1.077       .  S
C128        C134   1.429       .  A
C128        C129   1.422       .  A
C129        C131   1.400       .  A
C129        C130   1.405       .  A
C130        H141   1.085       .  S
C131        C132   1.390       .  A
C131        H142   1.084       .  S
C132        C133   1.400       .  A
C132        H143   1.084       .  S
C133        C134   1.423       .  A
C133        C138   1.406       .  A
C134        C135   1.414       .  A
C135        C136   1.395       .  A
C135        H144   1.077       .  S
C136        C137   1.399       .  A
C136        H145   1.083       .  S
C137        C138   1.402       .  A
C138        H146   1.085       .  S
C147        C148   1.402       .  A
C147        C152   1.404       .  A
C148        C149   1.392       .  A
C148        H161   1.083       .  S
C149        C150   1.413       .  A
C149        H162   1.077       .  S
C150        C156   1.428       .  A
C150        C151   1.422       .  A
C151        C153   1.400       .  A
C151        C152   1.405       .  A
C152        H163   1.084       .  S
C153        C154   1.390       .  A
C153        H164   1.084       .  S
C154        C155   1.400       .  A
C154        H165   1.084       .  S
C155        C156   1.422       .  A
C155        C160   1.405       .  A
C156        C157   1.414       .  A
C157        C158   1.393       .  A
C157        H166   1.077       .  S
C158        C159   1.402       .  A
C158        H167   1.083       .  S
C159        C160   1.404       .  A
C160        H168   1.084       .  S
C169        C170   1.401       .  A
C169        C174   1.405       .  A
C170        C171   1.394       .  A
C170        H183   1.083       .  S
C171        C172   1.415       .  A
C171        H184   1.077       .  S
C172        C178   1.429       .  A
C172        C173   1.421       .  A
C173        C175   1.401       .  A
C173        C174   1.406       .  A
C174        H185   1.084       .  S
C175        C176   1.391       .  A
C175        H186   1.084       .  S
C176        C177   1.400       .  A
C176        H187   1.084       .  S
C177        C178   1.423       .  A
C177        C182   1.408       .  A
C178        C179   1.412       .  A
C179        C180   1.392       .  A
C179        H188   1.076       .  S
C180        C181   1.402       .  A
C180        H189   1.083       .  S
C181        C182   1.405       .  A
C182        H190   1.084       .  S
C191        C192   1.402       .  A
C191        C196   1.403       .  A
C192        C193   1.392       .  A
C192        H205   1.083       .  S
C193        C194   1.413       .  A
C193        H206   1.077       .  S
C194        C200   1.428       .  A
C194        C195   1.422       .  A
C195        C197   1.399       .  A
C195        C196   1.405       .  A
C196        H207   1.084       .  S
C197        C198   1.390       .  A
C197        H208   1.084       .  S
C198        C199   1.400       .  A
C198        H209   1.084       .  S
C199        C200   1.422       .  A
C199        C204   1.406       .  A
C200        C201   1.414       .  A
C201        C202   1.394       .  A
C201        H210   1.077       .  S
C202        C203   1.402       .  A
C202        H211   1.083       .  S
C203        C204   1.404       .  A
C204        H212   1.084       .  S
C213        C214   1.401       .  A
C213        C218   1.403       .  A
C214        C215   1.392       .  A
C214        H227   1.083       .  S
C215        C216   1.413       .  A
C215        H228   1.077       .  S
C216        C222   1.427       .  A
C216        C217   1.423       .  A
C217        C219   1.400       .  A
C217        C218   1.406       .  A
C218        H229   1.085       .  S
C219        C220   1.390       .  A
C219        H230   1.084       .  S
C220        C221   1.400       .  A
C220        H231   1.084       .  S
C221        C222   1.421       .  A
C221        C226   1.404       .  A
C222        C223   1.415       .  A
C223        C224   1.393       .  A
C223        H232   1.077       .  S
C224        C225   1.400       .  A
C224        H233   1.083       .  S
C225        C226   1.403       .  A
C226        H234   1.084       .  S
C235        C236   1.402       .  A
C235        C240   1.401       .  A
C236        C237   1.393       .  A
C236        H249   1.083       .  S
C237        C238   1.413       .  A
C237        H250   1.077       .  S
C238        C244   1.428       .  A
C238        C239   1.423       .  A
C239        C241   1.399       .  A
C239        C240   1.404       .  A
C240        H251   1.085       .  S
C241        C242   1.389       .  A
C241        H252   1.084       .  S
C242        C243   1.400       .  A
C242        H253   1.084       .  S
C243        C244   1.422       .  A
C243        C248   1.404       .  A
C244        C245   1.415       .  A
C245        C246   1.394       .  A
C245        H254   1.077       .  S
C246        C247   1.401       .  A
C246        H255   1.083       .  S
C247        C248   1.402       .  A
C248        H256   1.084       .  S
C257        C258   1.402       .  A
C257        C262   1.402       .  A
C258        C259   1.394       .  A
C258        H271   1.083       .  S
C259        C260   1.413       .  A
C259        H272   1.077       .  S
C260        C266   1.429       .  A
C260        C261   1.423       .  A
C261        C263   1.399       .  A
C261        C262   1.406       .  A
C262        H273   1.084       .  S
C263        C264   1.390       .  A
C263        H274   1.084       .  S
C264        C265   1.400       .  A
C264        H275   1.084       .  S
C265        C266   1.421       .  A
C265        C270   1.404       .  A
C266        C267   1.416       .  A
C267        C268   1.396       .  A
C267        H276   1.077       .  S
C268        C269   1.401       .  A
C268        H277   1.083       .  S
C269        C270   1.403       .  A
C270        H278   1.084       .  S
C279        C280   1.402       .  A
C279        C284   1.405       .  A
C280        C281   1.394       .  A
C280        H293   1.083       .  S
C281        C282   1.414       .  A
C281        H294   1.077       .  S
C282        C288   1.430       .  A
C282        C283   1.422       .  A
C283        C285   1.400       .  A
C283        C284   1.407       .  A
C284        H295   1.084       .  S
C285        C286   1.391       .  A
C285        H296   1.084       .  S
C286        C287   1.400       .  A
C286        H297   1.084       .  S
C287        C288   1.422       .  A
C287        C292   1.406       .  A
C288        C289   1.414       .  A
C289        C290   1.394       .  A
C289        H298   1.077       .  S
C290        C291   1.403       .  A
C290        H299   1.083       .  S
C291        C292   1.404       .  A
C292        H300   1.084       .  S
O301       Zr313   2.436       .  S
O301        C303   1.288       .  A
O302       Zr639   2.425       .  S
O302        C303   1.287       .  A
C303        C513   1.481       .  S
O304      Zr1516   2.444       .  S
O304        C306   1.288       .  A
O305        C306   1.287       .  A
C306        C469   1.485       .  S
O307       Zr316   2.447       .  S
O307        C309   1.290       .  A
O308       Zr939   2.422       .  S
O308        C309   1.287       .  A
C309        C579   1.488       .  S
O310      Zr1513   2.445       .  S
O310        C312   1.289       .  A
O311       Zr340   2.421       .  S
O311        C312   1.286       .  A
C312        C569   1.482       .  S
Zr313      O1510   2.443       .  S
Zr313       O314   2.434       .  S
Zr313      O1515   2.437       .  S
Zr313       O319   2.371       .  S
Zr313      O1520   2.367       .  S
Zr313      O1543   2.371       .  S
Zr313       O945   2.373       .  S
O314        H357   0.990       .  S
O315      Zr1513   2.438       .  S
O315       H1556   0.992   1_455  S
O315       H1560   0.989       .  S
Zr316      O1504   2.444       .  S
Zr316       O317   2.434       .  S
Zr316      O1518   2.436       .  S
Zr316      O1220   2.373       .  S
Zr316       O944   2.371       .  S
Zr316      O1546   2.375       .  S
O317       H1558   0.990       .  S
O317        H361   0.990       .  S
O318      Zr1516   2.436       .  S
O318       H1551   0.990       .  S
O319       Zr639   2.378       .  S
O320      Zr1513   2.368       .  S
O320      Zr1216   2.373   1_556  S
O320       Zr340   2.381       .  S
O321       Zr333   2.441       .  S
O321        C323   1.288       .  A
O322       Zr940   2.415       .  S
O322        C323   1.286       .  A
C323        C447   1.482       .  S
O324      Zr1536   2.432       .  S
O324        C326   1.288       .  A
O325       Zr339   2.420       .  S
O325        C326   1.286       .  A
C326        C491   1.481       .  S
O327       Zr336   2.443       .  S
O327        C329   1.289       .  A
O328       Zr640   2.418       .  S
O328        C329   1.286       .  A
C329        C425   1.477       .  S
O330      Zr1533   2.429       .  S
O330        C332   1.287       .  A
O331        C332   1.288       .  A
C332        C535   1.479       .  S
Zr333      O1530   2.428   1_455  S
Zr333       O334   2.438       .  S
Zr333       O335   2.435       .  S
Zr333      O1242   2.373   1_455  S
Zr333      O1545   2.372   1_455  S
Zr333       O943   2.370       .  S
O334        H354   0.990       .  S
O334        H359   0.990       .  S
O335        H355   0.990       .  S
Zr336      O1524   2.435   1_455  S
Zr336       O337   2.434       .  S
Zr336       O338   2.434       .  S
Zr336      O1542   2.371   1_455  S
Zr336       O341   2.366       .  S
Zr336       O946   2.371       .  S
Zr336      O1544   2.372   1_455  S
O337       H1553   0.990       .  S
O338        H352   0.990       .  S
O338        H362   0.990       .  S
Zr339       O602   2.425   1_545  S
Zr339       O908   2.423   1_545  S
Zr339       O619   2.377   1_545  S
Zr339       O342   2.378       .  S
Zr339       O344   2.386       .  S
Zr340       O922   2.414       .  S
Zr340       O628   2.419   1_556  S
Zr340       O641   2.378       .  S
Zr340       O343   2.380       .  S
O341       Zr640   2.378       .  S
O342      Zr1233   2.373       .  S
O342      Zr1536   2.372       .  S
O343      Zr1513   2.371       .  S
O343       Zr933   2.371       .  S
O344       Zr916   2.371   1_545  S
O344      Zr1536   2.372       .  S
O344        H348   0.966       .  S
O345       Zr913   2.372   1_545  S
O345      Zr1533   2.372       .  S
O345        H350   0.966       .  S
O346      Zr1516   2.374       .  S
O346       Zr936   2.372       .  S
H351       O1518   0.990       .  S
H353       O1537   0.990       .  S
H356       O1515   0.992       .  S
H358       O1517   0.990       .  S
H360       O1515   0.989       .  S
O363       Zr375   2.437       .  S
O363        C365   1.288       .  A
O364       Zr401   2.423       .  S
O364        C365   1.287       .  A
C365        C591   1.485       .  S
O366       Zr378   2.434       .  S
O366        C368   1.287       .  A
O367       Zr402   2.431       .  S
O367        C368   1.288       .  A
C368        C557   1.482       .  S
O369       Zr378   2.436       .  S
O369        C371   1.287       .  A
O370       Zr401   2.416       .  S
O370        C371   1.286       .  A
C371        C525   1.478       .  S
O372       Zr375   2.435       .  S
O372        C374   1.288       .  A
O373       Zr402   2.428       .  S
O373        C374   1.288       .  A
C374        C481   1.485       .  S
Zr375       O376   2.434       .  S
Zr375       O377   2.434       .  S
Zr375       O381   2.367       .  S
Zr375       O382   2.367       .  S
Zr375       O405   2.372       .  S
Zr375       O407   2.370       .  S
O376        H419   0.990       .  S
O377        H418   0.991       .  S
O377        H422   0.990       .  S
Zr378       O379   2.435       .  S
Zr378       O380   2.433       .  S
Zr378       O382   2.369       .  S
Zr378       O381   2.369       .  S
Zr378       O406   2.372       .  S
Zr378       O408   2.374       .  S
O379        H420   0.990       .  S
O379        H423   0.990       .  S
O380        H413   0.990       .  S
O381       Zr401   2.374       .  S
O382       Zr402   2.384       .  S
O382        H409   0.966       .  S
O383       Zr395   2.442       .  S
O383        C385   1.289       .  A
O384       Zr402   2.426       .  S
O384        C385   1.287       .  A
C385        C437   1.478       .  S
O386       Zr398   2.440       .  S
O386        C388   1.288       .  A
O387       Zr401   2.415       .  S
O387        C388   1.286       .  A
C388        C547   1.479       .  S
O389       Zr398   2.440       .  S
O389        C391   1.289       .  A
O390       Zr402   2.423       .  S
O390        C391   1.287       .  A
C391        C459   1.483       .  S
O392       Zr395   2.448       .  S
O392        C394   1.290       .  A
O393       Zr401   2.415       .  S
O393        C394   1.286       .  A
C394        C503   1.484       .  S
Zr395       O396   2.436       .  S
Zr395       O397   2.435       .  S
Zr395       O403   2.371       .  S
Zr395       O404   2.367       .  S
Zr395       O407   2.370       .  S
Zr395       O405   2.375       .  S
O396        H416   0.990       .  S
O396        H421   0.990       .  S
O397        H417   0.990       .  S
Zr398       O399   2.433       .  S
Zr398       O400   2.435       .  S
Zr398       O404   2.370       .  S
Zr398       O403   2.372       .  S
Zr398       O408   2.372       .  S
Zr398       O406   2.368       .  S
O399        H415   0.990       .  S
O400        H414   0.990       .  S
O400        H424   0.990       .  S
Zr401       O404   2.374       .  S
Zr401       O406   2.384       .  S
Zr401       O407   2.381       .  S
Zr402       O403   2.385       .  S
Zr402       O405   2.386       .  S
Zr402       O408   2.383       .  S
O403        H411   0.965       .  S
O406        H410   0.966       .  S
O407        H412   0.965       .  S
C425        C426   1.400       .  A
C425        C430   1.401       .  A
C426        C427   1.395       .  A
C426        H439   1.084       .  S
C427        C428   1.415       .  A
C427        H440   1.077       .  S
C428        C434   1.429       .  A
C428        C429   1.422       .  A
C429        C431   1.400       .  A
C429        C430   1.405       .  A
C430        H441   1.085       .  S
C431        C432   1.390       .  A
C431        H442   1.084       .  S
C432        C433   1.400       .  A
C432        H443   1.084       .  S
C433        C434   1.423       .  A
C433        C438   1.406       .  A
C434        C435   1.414       .  A
C435        C436   1.395       .  A
C435        H444   1.077       .  S
C436        C437   1.400       .  A
C436        H445   1.083       .  S
C437        C438   1.402       .  A
C438        H446   1.085       .  S
C447        C448   1.401       .  A
C447        C452   1.404       .  A
C448        C449   1.392       .  A
C448        H461   1.083       .  S
C449        C450   1.413       .  A
C449        H462   1.077       .  S
C450        C456   1.427       .  A
C450        C451   1.422       .  A
C451        C453   1.400       .  A
C451        C452   1.405       .  A
C452        H463   1.084       .  S
C453        C454   1.390       .  A
C453        H464   1.084       .  S
C454        C455   1.400       .  A
C454        H465   1.084       .  S
C455        C456   1.421       .  A
C455        C460   1.405       .  A
C456        C457   1.414       .  A
C457        C458   1.393       .  A
C457        H466   1.077       .  S
C458        C459   1.402       .  A
C458        H467   1.083       .  S
C459        C460   1.404       .  A
C460        H468   1.084       .  S
C469        C470   1.401       .  A
C469        C474   1.405       .  A
C470        C471   1.394       .  A
C470        H483   1.083       .  S
C471        C472   1.414       .  A
C471        H484   1.077       .  S
C472        C478   1.429       .  A
C472        C473   1.421       .  A
C473        C475   1.401       .  A
C473        C474   1.406       .  A
C474        H485   1.084       .  S
C475        C476   1.392       .  A
C475        H486   1.084       .  S
C476        C477   1.400       .  A
C476        H487   1.084       .  S
C477        C478   1.423       .  A
C477        C482   1.408       .  A
C478        C479   1.412       .  A
C479        C480   1.392       .  A
C479        H488   1.077       .  S
C480        C481   1.402       .  A
C480        H489   1.083       .  S
C481        C482   1.405       .  A
C482        H490   1.084       .  S
C491        C492   1.402       .  A
C491        C496   1.403       .  A
C492        C493   1.392       .  A
C492        H505   1.083       .  S
C493        C494   1.413       .  A
C493        H506   1.077       .  S
C494        C500   1.428       .  A
C494        C495   1.422       .  A
C495        C497   1.399       .  A
C495        C496   1.405       .  A
C496        H507   1.084       .  S
C497        C498   1.390       .  A
C497        H508   1.084       .  S
C498        C499   1.400       .  A
C498        H509   1.084       .  S
C499        C500   1.422       .  A
C499        C504   1.405       .  A
C500        C501   1.414       .  A
C501        C502   1.393       .  A
C501        H510   1.077       .  S
C502        C503   1.402       .  A
C502        H511   1.083       .  S
C503        C504   1.404       .  A
C504        H512   1.084       .  S
C513        C514   1.401       .  A
C513        C518   1.403       .  A
C514        C515   1.392       .  A
C514        H527   1.083       .  S
C515        C516   1.413       .  A
C515        H528   1.077       .  S
C516        C522   1.427       .  A
C516        C517   1.423       .  A
C517        C519   1.400       .  A
C517        C518   1.406       .  A
C518        H529   1.084       .  S
C519        C520   1.390       .  A
C519        H530   1.084       .  S
C520        C521   1.400       .  A
C520        H531   1.084       .  S
C521        C522   1.421       .  A
C521        C526   1.404       .  A
C522        C523   1.415       .  A
C523        C524   1.393       .  A
C523        H532   1.077       .  S
C524        C525   1.400       .  A
C524        H533   1.083       .  S
C525        C526   1.403       .  A
C526        H534   1.084       .  S
C535        C536   1.402       .  A
C535        C540   1.401       .  A
C536        C537   1.393       .  A
C536        H549   1.083       .  S
C537        C538   1.413       .  A
C537        H550   1.077       .  S
C538        C544   1.428       .  A
C538        C539   1.423       .  A
C539        C541   1.399       .  A
C539        C540   1.405       .  A
C540        H551   1.085       .  S
C541        C542   1.389       .  A
C541        H552   1.084       .  S
C542        C543   1.400       .  A
C542        H553   1.084       .  S
C543        C544   1.422       .  A
C543        C548   1.404       .  A
C544        C545   1.415       .  A
C545        C546   1.394       .  A
C545        H554   1.077       .  S
C546        C547   1.401       .  A
C546        H555   1.084       .  S
C547        C548   1.402       .  A
C548        H556   1.084       .  S
C557        C558   1.402       .  A
C557        C562   1.402       .  A
C558        C559   1.394       .  A
C558        H571   1.083       .  S
C559        C560   1.413       .  A
C559        H572   1.077       .  S
C560        C566   1.430       .  A
C560        C561   1.423       .  A
C561        C563   1.399       .  A
C561        C562   1.406       .  A
C562        H573   1.084       .  S
C563        C564   1.390       .  A
C563        H574   1.084       .  S
C564        C565   1.400       .  A
C564        H575   1.084       .  S
C565        C566   1.421       .  A
C565        C570   1.404       .  A
C566        C567   1.416       .  A
C567        C568   1.397       .  A
C567        H576   1.077       .  S
C568        C569   1.401       .  A
C568        H577   1.083       .  S
C569        C570   1.403       .  A
C570        H578   1.084       .  S
C579        C580   1.403       .  A
C579        C584   1.405       .  A
C580        C581   1.395       .  A
C580        H593   1.083       .  S
C581        C582   1.414       .  A
C581        H594   1.077       .  S
C582        C588   1.430       .  A
C582        C583   1.422       .  A
C583        C585   1.400       .  A
C583        C584   1.407       .  A
C584        H595   1.084       .  S
C585        C586   1.390       .  A
C585        H596   1.084       .  S
C586        C587   1.399       .  A
C586        H597   1.084       .  S
C587        C588   1.422       .  A
C587        C592   1.406       .  A
C588        C589   1.414       .  A
C589        C590   1.395       .  A
C589        H598   1.077       .  S
C590        C591   1.403       .  A
C590        H599   1.083       .  S
C591        C592   1.403       .  A
C592        H600   1.084       .  S
O601       Zr613   2.437       .  S
O601        C603   1.288       .  A
O602        C603   1.287       .  A
C603        C813   1.481       .  S
O604      Zr1816   2.442       .  S
O604        C606   1.288       .  A
O605       Zr940   2.423   1_564  S
O605        C606   1.288       .  A
C606        C769   1.485       .  S
O607       Zr616   2.444       .  S
O607        C609   1.289       .  A
O608        C609   1.287       .  A
C609        C879   1.487       .  S
O610      Zr1813   2.444       .  S
O610        C612   1.289       .  A
O611       Zr640   2.420   1_565  S
O611        C612   1.286       .  A
C612        C869   1.481       .  S
Zr613      O1810   2.445       .  S
Zr613       O614   2.433       .  S
Zr613      O1815   2.438       .  S
Zr613       O619   2.372       .  S
Zr613      O1820   2.367       .  S
Zr613      O1843   2.370   1_565  S
O614        H657   0.990       .  S
O615      Zr1813   2.437       .  S
O615       H1856   0.992   1_455  S
O615       H1860   0.989       .  S
Zr616      O1804   2.443       .  S
Zr616       O617   2.435       .  S
Zr616      O1818   2.436       .  S
Zr616      O2120   2.372   1_554  S
Zr616       O919   2.373   1_554  S
Zr616      O1846   2.375   1_565  S
O617       H1858   0.990       .  S
O617        H661   0.990       .  S
O618      Zr1816   2.435       .  S
O618       H1851   0.990   1_455  S
O619       Zr916   2.373       .  S
O620      Zr1813   2.367       .  S
O620      Zr2116   2.373       .  S
O620       Zr640   2.380   1_565  S
O620        H947   0.965       .  S
O621       Zr633   2.443       .  S
O621        C623   1.288       .  A
O622        C623   1.286       .  A
C623        C747   1.482       .  S
O624      Zr1836   2.436       .  S
O624        C626   1.288       .  A
O625       Zr639   2.421   1_554  S
O625        C626   1.287       .  A
C626        C791   1.483       .  S
O627       Zr636   2.443       .  S
O627        C629   1.288       .  A
O628        C629   1.286       .  A
C629        C725   1.478       .  S
O630      Zr1833   2.427       .  S
O630        C632   1.286       .  A
O631       Zr939   2.428       .  S
O631        C632   1.288       .  A
C632        C835   1.480       .  S
Zr633      O1830   2.428   1_455  S
Zr633       O634   2.438       .  S
Zr633       O635   2.434       .  S
Zr633       O941   2.366       .  S
Zr633      O2142   2.372   1_455  S
Zr633      O1845   2.372   1_455  S
O634        H654   0.990       .  S
O634        H659   0.990       .  S
O635        H655   0.990       .  S
Zr636      O1824   2.433   1_455  S
Zr636       O637   2.434       .  S
Zr636       O638   2.435       .  S
Zr636      O1842   2.373   1_454  S
Zr636       O641   2.366   1_554  S
Zr636      O1844   2.373   1_455  S
O637       H1853   0.990       .  S
O638        H652   0.990       .  S
O638        H662   0.990       .  S
Zr639       O931   2.428       .  S
Zr639       O642   2.378       .  S
Zr639       O644   2.387   1_556  S
Zr639       O945   2.386       .  S
Zr640       O905   2.420   1_545  S
Zr640       O643   2.377       .  S
Zr640       O946   2.382       .  S
O641       Zr933   2.368       .  S
O641        H949   0.965       .  S
O642      Zr2133   2.373       .  S
O642      Zr1836   2.372   1_556  S
O643      Zr1813   2.370   1_545  S
O644      Zr1836   2.372       .  S
O644        H648   0.966       .  S
O645      Zr1833   2.372       .  S
O645       Zr939   2.386       .  S
O645        H650   0.966       .  S
O646      Zr1816   2.376   1_545  S
O646       Zr940   2.382   1_554  S
H647        O920   0.965       .  S
H649        O941   0.965       .  S
H651       O1818   0.990       .  S
H653       O1837   0.990       .  S
H656       O1815   0.992       .  S
H658       O1817   0.990       .  S
H660       O1815   0.989       .  S
O663       Zr675   2.439       .  S
O663        C665   1.288       .  A
O664       Zr701   2.423       .  S
O664        C665   1.287       .  A
C665        C891   1.485       .  S
O666       Zr678   2.431       .  S
O666        C668   1.286       .  A
O667       Zr702   2.430       .  S
O667        C668   1.288       .  A
C668        C857   1.481       .  S
O669       Zr678   2.434       .  S
O669        C671   1.287       .  A
O670       Zr701   2.418       .  S
O670        C671   1.286       .  A
C671        C825   1.479       .  S
O672       Zr675   2.435       .  S
O672        C674   1.288       .  A
O673       Zr702   2.430       .  S
O673        C674   1.288       .  A
C674        C781   1.486       .  S
Zr675       O676   2.434       .  S
Zr675       O677   2.435       .  S
Zr675       O681   2.368       .  S
Zr675       O682   2.368       .  S
Zr675       O705   2.372       .  S
Zr675       O707   2.370       .  S
O676        H719   0.990       .  S
O677        H718   0.991       .  S
O677        H722   0.990       .  S
Zr678       O679   2.435       .  S
Zr678       O680   2.434       .  S
Zr678       O682   2.369       .  S
Zr678       O681   2.368       .  S
Zr678       O706   2.373       .  S
Zr678       O708   2.374       .  S
O679        H720   0.990       .  S
O679        H723   0.990       .  S
O680        H713   0.989       .  S
O681       Zr701   2.375       .  S
O682       Zr702   2.384       .  S
O682        H709   0.966       .  S
O683       Zr695   2.443       .  S
O683        C685   1.289       .  A
O684       Zr702   2.424       .  S
O684        C685   1.287       .  A
C685        C737   1.478       .  S
O686       Zr698   2.440       .  S
O686        C688   1.288       .  A
O687       Zr701   2.417       .  S
O687        C688   1.286       .  A
C688        C847   1.480       .  S
O689       Zr698   2.441       .  S
O689        C691   1.289       .  A
O690       Zr702   2.424       .  S
O690        C691   1.287       .  A
C691        C759   1.484       .  S
O692       Zr695   2.448       .  S
O692        C694   1.290       .  A
O693       Zr701   2.417       .  S
O693        C694   1.286       .  A
C694        C803   1.485       .  S
Zr695       O696   2.436       .  S
Zr695       O697   2.435       .  S
Zr695       O703   2.372       .  S
Zr695       O704   2.367       .  S
Zr695       O707   2.370       .  S
Zr695       O705   2.375       .  S
O696        H716   0.990       .  S
O696        H721   0.990       .  S
O697        H717   0.990       .  S
Zr698       O699   2.434       .  S
Zr698       O700   2.435       .  S
Zr698       O704   2.370       .  S
Zr698       O703   2.373       .  S
Zr698       O708   2.371       .  S
Zr698       O706   2.369       .  S
O699        H715   0.990       .  S
O700        H714   0.990       .  S
O700        H724   0.990       .  S
Zr701       O704   2.374       .  S
Zr701       O706   2.384       .  S
Zr701       O707   2.381       .  S
Zr702       O703   2.386       .  S
Zr702       O705   2.386       .  S
Zr702       O708   2.383       .  S
O703        H711   0.965       .  S
O706        H710   0.966       .  S
O707        H712   0.965       .  S
C725        C726   1.400       .  A
C725        C730   1.401       .  A
C726        C727   1.395       .  A
C726        H739   1.084       .  S
C727        C728   1.415       .  A
C727        H740   1.077       .  S
C728        C734   1.429       .  A
C728        C729   1.422       .  A
C729        C731   1.400       .  A
C729        C730   1.405       .  A
C730        H741   1.085       .  S
C731        C732   1.390       .  A
C731        H742   1.084       .  S
C732        C733   1.400       .  A
C732        H743   1.084       .  S
C733        C734   1.423       .  A
C733        C738   1.406       .  A
C734        C735   1.414       .  A
C735        C736   1.394       .  A
C735        H744   1.077       .  S
C736        C737   1.399       .  A
C736        H745   1.084       .  S
C737        C738   1.402       .  A
C738        H746   1.085       .  S
C747        C748   1.402       .  A
C747        C752   1.404       .  A
C748        C749   1.392       .  A
C748        H761   1.083       .  S
C749        C750   1.413       .  A
C749        H762   1.077       .  S
C750        C756   1.428       .  A
C750        C751   1.422       .  A
C751        C753   1.400       .  A
C751        C752   1.405       .  A
C752        H763   1.084       .  S
C753        C754   1.390       .  A
C753        H764   1.084       .  S
C754        C755   1.400       .  A
C754        H765   1.084       .  S
C755        C756   1.422       .  A
C755        C760   1.405       .  A
C756        C757   1.414       .  A
C757        C758   1.393       .  A
C757        H766   1.077       .  S
C758        C759   1.402       .  A
C758        H767   1.083       .  S
C759        C760   1.404       .  A
C760        H768   1.084       .  S
C769        C770   1.401       .  A
C769        C774   1.405       .  A
C770        C771   1.394       .  A
C770        H783   1.083       .  S
C771        C772   1.414       .  A
C771        H784   1.077       .  S
C772        C778   1.429       .  A
C772        C773   1.421       .  A
C773        C775   1.400       .  A
C773        C774   1.406       .  A
C774        H785   1.084       .  S
C775        C776   1.391       .  A
C775        H786   1.084       .  S
C776        C777   1.400       .  A
C776        H787   1.084       .  S
C777        C778   1.423       .  A
C777        C782   1.408       .  A
C778        C779   1.413       .  A
C779        C780   1.393       .  A
C779        H788   1.077       .  S
C780        C781   1.403       .  A
C780        H789   1.083       .  S
C781        C782   1.404       .  A
C782        H790   1.084       .  S
C791        C792   1.402       .  A
C791        C796   1.404       .  A
C792        C793   1.393       .  A
C792        H805   1.083       .  S
C793        C794   1.413       .  A
C793        H806   1.077       .  S
C794        C800   1.429       .  A
C794        C795   1.422       .  A
C795        C797   1.400       .  A
C795        C796   1.406       .  A
C796        H807   1.084       .  S
C797        C798   1.391       .  A
C797        H808   1.084       .  S
C798        C799   1.400       .  A
C798        H809   1.084       .  S
C799        C800   1.422       .  A
C799        C804   1.406       .  A
C800        C801   1.414       .  A
C801        C802   1.394       .  A
C801        H810   1.077       .  S
C802        C803   1.402       .  A
C802        H811   1.083       .  S
C803        C804   1.404       .  A
C804        H812   1.084       .  S
C813        C814   1.401       .  A
C813        C818   1.403       .  A
C814        C815   1.392       .  A
C814        H827   1.083       .  S
C815        C816   1.413       .  A
C815        H828   1.077       .  S
C816        C822   1.427       .  A
C816        C817   1.423       .  A
C817        C819   1.400       .  A
C817        C818   1.406       .  A
C818        H829   1.084       .  S
C819        C820   1.390       .  A
C819        H830   1.084       .  S
C820        C821   1.400       .  A
C820        H831   1.084       .  S
C821        C822   1.421       .  A
C821        C826   1.404       .  A
C822        C823   1.414       .  A
C823        C824   1.393       .  A
C823        H832   1.077       .  S
C824        C825   1.400       .  A
C824        H833   1.083       .  S
C825        C826   1.403       .  A
C826        H834   1.084       .  S
C835        C836   1.402       .  A
C835        C840   1.401       .  A
C836        C837   1.393       .  A
C836        H849   1.083       .  S
C837        C838   1.413       .  A
C837        H850   1.077       .  S
C838        C844   1.428       .  A
C838        C839   1.423       .  A
C839        C841   1.399       .  A
C839        C840   1.405       .  A
C840        H851   1.085       .  S
C841        C842   1.389       .  A
C841        H852   1.084       .  S
C842        C843   1.400       .  A
C842        H853   1.084       .  S
C843        C844   1.422       .  A
C843        C848   1.404       .  A
C844        C845   1.415       .  A
C845        C846   1.394       .  A
C845        H854   1.077       .  S
C846        C847   1.401       .  A
C846        H855   1.083       .  S
C847        C848   1.402       .  A
C848        H856   1.084       .  S
C857        C858   1.402       .  A
C857        C862   1.401       .  A
C858        C859   1.394       .  A
C858        H871   1.083       .  S
C859        C860   1.413       .  A
C859        H872   1.077       .  S
C860        C866   1.429       .  A
C860        C861   1.423       .  A
C861        C863   1.399       .  A
C861        C862   1.406       .  A
C862        H873   1.084       .  S
C863        C864   1.390       .  A
C863        H874   1.084       .  S
C864        C865   1.400       .  A
C864        H875   1.084       .  S
C865        C866   1.422       .  A
C865        C870   1.404       .  A
C866        C867   1.416       .  A
C867        C868   1.396       .  A
C867        H876   1.077       .  S
C868        C869   1.401       .  A
C868        H877   1.083       .  S
C869        C870   1.402       .  A
C870        H878   1.084       .  S
C879        C880   1.402       .  A
C879        C884   1.405       .  A
C880        C881   1.394       .  A
C880        H893   1.083       .  S
C881        C882   1.414       .  A
C881        H894   1.077       .  S
C882        C888   1.430       .  A
C882        C883   1.422       .  A
C883        C885   1.400       .  A
C883        C884   1.407       .  A
C884        H895   1.084       .  S
C885        C886   1.391       .  A
C885        H896   1.084       .  S
C886        C887   1.400       .  A
C886        H897   1.084       .  S
C887        C888   1.422       .  A
C887        C892   1.406       .  A
C888        C889   1.414       .  A
C889        C890   1.394       .  A
C889        H898   1.077       .  S
C890        C891   1.403       .  A
C890        H899   1.083       .  S
C891        C892   1.404       .  A
C892        H900   1.084       .  S
O901       Zr913   2.437       .  S
O901        C903   1.288       .  A
O902        C903   1.287       .  A
C903       C1113   1.481       .  S
O904      Zr2116   2.443       .  S
O904        C906   1.288       .  A
O905        C906   1.287       .  A
C906       C1069   1.484       .  S
O907       Zr916   2.447       .  S
O907        C909   1.289       .  A
O908        C909   1.287       .  A
C909       C1179   1.488       .  S
O910      Zr2113   2.444       .  S
O910        C912   1.289       .  A
O911       Zr940   2.419   1_565  S
O911        C912   1.286       .  A
C912       C1169   1.480       .  S
Zr913      O2110   2.444       .  S
Zr913       O914   2.433       .  S
Zr913      O2115   2.437       .  S
Zr913       O919   2.372       .  S
Zr913      O2120   2.367       .  S
Zr913      O2143   2.371   1_565  S
O914        H957   0.990       .  S
O915      Zr2113   2.437       .  S
O915       H2156   0.992   1_455  S
O915       H2160   0.989       .  S
Zr916      O2104   2.444       .  S
Zr916       O917   2.434       .  S
Zr916      O2118   2.436       .  S
Zr916      O1820   2.373       .  S
Zr916      O2146   2.375   1_565  S
O917       H2158   0.990       .  S
O917        H961   0.990       .  S
O918      Zr2116   2.436       .  S
O918       H2151   0.990       .  S
O920      Zr2113   2.366       .  S
O920      Zr1816   2.373   1_556  S
O920       Zr940   2.379   1_565  S
O921       Zr933   2.441       .  S
O921        C923   1.288       .  A
O922        C923   1.286       .  A
C923       C1047   1.481       .  S
O924      Zr2136   2.434       .  S
O924        C926   1.288       .  A
O925       Zr939   2.421       .  S
O925        C926   1.287       .  A
C926       C1091   1.483       .  S
O927       Zr936   2.443       .  S
O927        C929   1.289       .  A
O928        C929   1.286       .  A
C929       C1025   1.477       .  S
O930      Zr2133   2.429       .  S
O930        C932   1.287       .  A
O931        C932   1.288       .  A
C932       C1135   1.480       .  S
Zr933      O2130   2.428   1_455  S
Zr933       O934   2.437       .  S
Zr933       O935   2.435       .  S
Zr933      O1842   2.374   1_455  S
Zr933      O2145   2.371   1_455  S
O934        H954   0.990       .  S
O934        H959   0.990       .  S
O935        H955   0.990       .  S
Zr936      O2124   2.434   1_455  S
Zr936       O937   2.435       .  S
Zr936       O938   2.435       .  S
Zr936      O2142   2.371   1_455  S
Zr936       O941   2.366       .  S
Zr936      O2144   2.372   1_455  S
O937       H2153   0.990       .  S
O938        H952   0.990       .  S
O938        H962   0.990       .  S
Zr939       O942   2.377       .  S
Zr939       O944   2.386       .  S
Zr940       O943   2.378       .  S
O942      Zr1833   2.373       .  S
O942      Zr2136   2.372       .  S
O943      Zr2113   2.371   1_545  S
O944      Zr2136   2.372       .  S
O944        H948   0.966       .  S
O945      Zr2133   2.373       .  S
O945        H950   0.966       .  S
O946      Zr2116   2.374   1_545  S
H951       O2118   0.990       .  S
H953       O2137   0.990       .  S
H956       O2115   0.992       .  S
H958       O2117   0.990       .  S
H960       O2115   0.989       .  S
O963       Zr975   2.438       .  S
O963        C965   1.288       .  A
O964      Zr1001   2.423       .  S
O964        C965   1.287       .  A
C965       C1191   1.485       .  S
O966       Zr978   2.432       .  S
O966        C968   1.287       .  A
O967      Zr1002   2.432       .  S
O967        C968   1.288       .  A
C968       C1157   1.482       .  S
O969       Zr978   2.434       .  S
O969        C971   1.287       .  A
O970      Zr1001   2.418       .  S
O970        C971   1.286       .  A
C971       C1125   1.478       .  S
O972       Zr975   2.433       .  S
O972        C974   1.288       .  A
O973      Zr1002   2.430       .  S
O973        C974   1.288       .  A
C974       C1081   1.485       .  S
Zr975       O976   2.434       .  S
Zr975       O977   2.434       .  S
Zr975       O981   2.367       .  S
Zr975       O982   2.368       .  S
Zr975      O1005   2.372       .  S
Zr975      O1007   2.370       .  S
O976       H1019   0.990       .  S
O977       H1018   0.991       .  S
O977       H1022   0.990       .  S
Zr978       O979   2.436       .  S
Zr978       O980   2.433       .  S
Zr978       O982   2.368       .  S
Zr978       O981   2.369       .  S
Zr978      O1006   2.372       .  S
Zr978      O1008   2.374       .  S
O979       H1020   0.990       .  S
O979       H1023   0.990       .  S
O980       H1013   0.990       .  S
O981      Zr1001   2.375       .  S
O982      Zr1002   2.383       .  S
O982       H1009   0.966       .  S
O983       Zr995   2.444       .  S
O983        C985   1.289       .  A
O984      Zr1002   2.425       .  S
O984        C985   1.287       .  A
C985       C1037   1.478       .  S
O986       Zr998   2.440       .  S
O986        C988   1.288       .  A
O987      Zr1001   2.416       .  S
O987        C988   1.286       .  A
C988       C1147   1.479       .  S
O989       Zr998   2.440       .  S
O989        C991   1.289       .  A
O990      Zr1002   2.423       .  S
O990        C991   1.287       .  A
C991       C1059   1.483       .  S
O992       Zr995   2.450       .  S
O992        C994   1.290       .  A
O993      Zr1001   2.417       .  S
O993        C994   1.286       .  A
C994       C1103   1.486       .  S
Zr995       O996   2.436       .  S
Zr995       O997   2.435       .  S
Zr995      O1003   2.372       .  S
Zr995      O1004   2.367       .  S
Zr995      O1007   2.370       .  S
Zr995      O1005   2.375       .  S
O996       H1016   0.990       .  S
O996       H1021   0.990       .  S
O997       H1017   0.990       .  S
Zr998       O999   2.434       .  S
Zr998      O1000   2.435       .  S
Zr998      O1004   2.370       .  S
Zr998      O1003   2.372       .  S
Zr998      O1008   2.372       .  S
Zr998      O1006   2.369       .  S
O999       H1015   0.990       .  S
O1000      H1014   0.990       .  S
O1000      H1024   0.990       .  S
Zr1001     O1004   2.374       .  S
Zr1001     O1006   2.383       .  S
Zr1001     O1007   2.381       .  S
Zr1002     O1003   2.386       .  S
Zr1002     O1005   2.386       .  S
Zr1002     O1008   2.383       .  S
O1003      H1011   0.965       .  S
O1006      H1010   0.966       .  S
O1007      H1012   0.965       .  S
C1025      C1026   1.400       .  A
C1025      C1030   1.401       .  A
C1026      C1027   1.395       .  A
C1026      H1039   1.084       .  S
C1027      C1028   1.415       .  A
C1027      H1040   1.077       .  S
C1028      C1034   1.429       .  A
C1028      C1029   1.422       .  A
C1029      C1031   1.400       .  A
C1029      C1030   1.405       .  A
C1030      H1041   1.085       .  S
C1031      C1032   1.390       .  A
C1031      H1042   1.084       .  S
C1032      C1033   1.400       .  A
C1032      H1043   1.084       .  S
C1033      C1034   1.423       .  A
C1033      C1038   1.406       .  A
C1034      C1035   1.414       .  A
C1035      C1036   1.395       .  A
C1035      H1044   1.077       .  S
C1036      C1037   1.399       .  A
C1036      H1045   1.083       .  S
C1037      C1038   1.402       .  A
C1038      H1046   1.085       .  S
C1047      C1048   1.401       .  A
C1047      C1052   1.404       .  A
C1048      C1049   1.392       .  A
C1048      H1061   1.083       .  S
C1049      C1050   1.413       .  A
C1049      H1062   1.077       .  S
C1050      C1056   1.427       .  A
C1050      C1051   1.422       .  A
C1051      C1053   1.400       .  A
C1051      C1052   1.405       .  A
C1052      H1063   1.084       .  S
C1053      C1054   1.390       .  A
C1053      H1064   1.084       .  S
C1054      C1055   1.400       .  A
C1054      H1065   1.084       .  S
C1055      C1056   1.421       .  A
C1055      C1060   1.404       .  A
C1056      C1057   1.414       .  A
C1057      C1058   1.393       .  A
C1057      H1066   1.077       .  S
C1058      C1059   1.402       .  A
C1058      H1067   1.083       .  S
C1059      C1060   1.404       .  A
C1060      H1068   1.084       .  S
C1069      C1070   1.401       .  A
C1069      C1074   1.405       .  A
C1070      C1071   1.394       .  A
C1070      H1083   1.083       .  S
C1071      C1072   1.414       .  A
C1071      H1084   1.077       .  S
C1072      C1078   1.429       .  A
C1072      C1073   1.421       .  A
C1073      C1075   1.400       .  A
C1073      C1074   1.406       .  A
C1074      H1085   1.084       .  S
C1075      C1076   1.391       .  A
C1075      H1086   1.084       .  S
C1076      C1077   1.400       .  A
C1076      H1087   1.084       .  S
C1077      C1078   1.422       .  A
C1077      C1082   1.407       .  A
C1078      C1079   1.412       .  A
C1079      C1080   1.392       .  A
C1079      H1088   1.077       .  S
C1080      C1081   1.403       .  A
C1080      H1089   1.083       .  S
C1081      C1082   1.404       .  A
C1082      H1090   1.084       .  S
C1091      C1092   1.402       .  A
C1091      C1096   1.404       .  A
C1092      C1093   1.393       .  A
C1092      H1105   1.083       .  S
C1093      C1094   1.413       .  A
C1093      H1106   1.077       .  S
C1094      C1100   1.429       .  A
C1094      C1095   1.422       .  A
C1095      C1097   1.400       .  A
C1095      C1096   1.406       .  A
C1096      H1107   1.084       .  S
C1097      C1098   1.391       .  A
C1097      H1108   1.084       .  S
C1098      C1099   1.400       .  A
C1098      H1109   1.084       .  S
C1099      C1100   1.422       .  A
C1099      C1104   1.406       .  A
C1100      C1101   1.414       .  A
C1101      C1102   1.394       .  A
C1101      H1110   1.077       .  S
C1102      C1103   1.402       .  A
C1102      H1111   1.083       .  S
C1103      C1104   1.404       .  A
C1104      H1112   1.084       .  S
C1113      C1114   1.401       .  A
C1113      C1118   1.403       .  A
C1114      C1115   1.392       .  A
C1114      H1127   1.083       .  S
C1115      C1116   1.413       .  A
C1115      H1128   1.077       .  S
C1116      C1122   1.428       .  A
C1116      C1117   1.423       .  A
C1117      C1119   1.400       .  A
C1117      C1118   1.406       .  A
C1118      H1129   1.084       .  S
C1119      C1120   1.390       .  A
C1119      H1130   1.084       .  S
C1120      C1121   1.400       .  A
C1120      H1131   1.084       .  S
C1121      C1122   1.422       .  A
C1121      C1126   1.404       .  A
C1122      C1123   1.414       .  A
C1123      C1124   1.393       .  A
C1123      H1132   1.077       .  S
C1124      C1125   1.400       .  A
C1124      H1133   1.083       .  S
C1125      C1126   1.403       .  A
C1126      H1134   1.084       .  S
C1135      C1136   1.402       .  A
C1135      C1140   1.402       .  A
C1136      C1137   1.393       .  A
C1136      H1149   1.083       .  S
C1137      C1138   1.413       .  A
C1137      H1150   1.077       .  S
C1138      C1144   1.428       .  A
C1138      C1139   1.423       .  A
C1139      C1141   1.399       .  A
C1139      C1140   1.405       .  A
C1140      H1151   1.085       .  S
C1141      C1142   1.390       .  A
C1141      H1152   1.084       .  S
C1142      C1143   1.400       .  A
C1142      H1153   1.084       .  S
C1143      C1144   1.422       .  A
C1143      C1148   1.404       .  A
C1144      C1145   1.415       .  A
C1145      C1146   1.394       .  A
C1145      H1154   1.077       .  S
C1146      C1147   1.401       .  A
C1146      H1155   1.084       .  S
C1147      C1148   1.402       .  A
C1148      H1156   1.084       .  S
C1157      C1158   1.402       .  A
C1157      C1162   1.402       .  A
C1158      C1159   1.394       .  A
C1158      H1171   1.083       .  S
C1159      C1160   1.413       .  A
C1159      H1172   1.077       .  S
C1160      C1166   1.430       .  A
C1160      C1161   1.423       .  A
C1161      C1163   1.399       .  A
C1161      C1162   1.406       .  A
C1162      H1173   1.084       .  S
C1163      C1164   1.390       .  A
C1163      H1174   1.084       .  S
C1164      C1165   1.400       .  A
C1164      H1175   1.084       .  S
C1165      C1166   1.421       .  A
C1165      C1170   1.404       .  A
C1166      C1167   1.416       .  A
C1167      C1168   1.396       .  A
C1167      H1176   1.077       .  S
C1168      C1169   1.401       .  A
C1168      H1177   1.083       .  S
C1169      C1170   1.402       .  A
C1170      H1178   1.084       .  S
C1179      C1180   1.403       .  A
C1179      C1184   1.405       .  A
C1180      C1181   1.395       .  A
C1180      H1193   1.083       .  S
C1181      C1182   1.414       .  A
C1181      H1194   1.077       .  S
C1182      C1188   1.430       .  A
C1182      C1183   1.422       .  A
C1183      C1185   1.400       .  A
C1183      C1184   1.407       .  A
C1184      H1195   1.084       .  S
C1185      C1186   1.391       .  A
C1185      H1196   1.084       .  S
C1186      C1187   1.399       .  A
C1186      H1197   1.084       .  S
C1187      C1188   1.422       .  A
C1187      C1192   1.406       .  A
C1188      C1189   1.414       .  A
C1189      C1190   1.395       .  A
C1189      H1198   1.077       .  S
C1190      C1191   1.403       .  A
C1190      H1199   1.083       .  S
C1191      C1192   1.404       .  A
C1192      H1200   1.084       .  S
O1201     Zr1213   2.436   1_655  S
O1201      C1203   1.288       .  A
O1202     Zr2139   2.424       .  S
O1202      C1203   1.287       .  A
C1203      C1413   1.480       .  S
O1204      C1206   1.288       .  A
O1205     Zr1540   2.423   1_554  S
O1205      C1206   1.288       .  A
C1206      C1369   1.485       .  S
O1207     Zr1216   2.447   1_655  S
O1207      C1209   1.289       .  A
O1208     Zr1839   2.423   1_554  S
O1208      C1209   1.287       .  A
C1209      C1479   1.488       .  S
O1210      C1212   1.289       .  A
O1211     Zr1240   2.423       .  S
O1211      C1212   1.287       .  A
C1212      C1469   1.482       .  S
Zr1213     O1214   2.434       .  S
Zr1213     O1219   2.373   1_455  S
Zr1213     O1845   2.372   1_455  S
O1214      H1257   0.990   1_455  S
Zr1216     O1217   2.434       .  S
Zr1216     O1519   2.372   1_454  S
Zr1216     O1844   2.370   1_455  S
O1217      H1261   0.990       .  S
O1219     Zr1516   2.373   1_655  S
O1219     Zr2139   2.378       .  S
O1220     Zr1240   2.380       .  S
O1220      H1547   0.965       .  S
O1221     Zr1233   2.441       .  S
O1221      C1223   1.288       .  A
O1222     Zr1840   2.414       .  S
O1222      C1223   1.286       .  A
C1223      C1347   1.481       .  S
O1224      C1226   1.288       .  A
O1225     Zr1239   2.421   1_554  S
O1225      C1226   1.287       .  A
C1226      C1391   1.482       .  S
O1227     Zr1236   2.444       .  S
O1227      C1229   1.289       .  A
O1228     Zr2140   2.417   1_554  S
O1228      C1229   1.286       .  A
C1229      C1325   1.477       .  S
O1230      C1232   1.286       .  A
O1231     Zr1539   2.427       .  S
O1231      C1232   1.288       .  A
C1232      C1435   1.479       .  S
Zr1233     O1234   2.437       .  S
Zr1233     O1235   2.434       .  S
Zr1233     O1541   2.367       .  S
Zr1233     O1843   2.370       .  S
O1234      H1254   0.990       .  S
O1234      H1259   0.990       .  S
O1235      H1255   0.990       .  S
Zr1236     O1237   2.434       .  S
Zr1236     O1238   2.435       .  S
Zr1236     O1241   2.366   1_554  S
Zr1236     O1846   2.371       .  S
O1238      H1252   0.990       .  S
O1238      H1262   0.990       .  S
Zr1239     O2102   2.425   1_545  S
Zr1239     O1808   2.424   1_546  S
Zr1239     O1531   2.425       .  S
Zr1239     O2119   2.377   1_545  S
Zr1239     O1242   2.378       .  S
Zr1239     O1244   2.386   1_556  S
Zr1239     O1545   2.386       .  S
Zr1240     O1505   2.422       .  S
Zr1240     O1822   2.414       .  S
Zr1240     O2128   2.420       .  S
Zr1240     O2141   2.379       .  S
Zr1240     O1243   2.378       .  S
Zr1240     O1546   2.383       .  S
O1241     Zr1533   2.367       .  S
O1241     Zr2140   2.379       .  S
O1241      H1549   0.965       .  S
O1243     Zr1833   2.370       .  S
O1244     Zr1816   2.371   1_645  S
O1244      H1248   0.966       .  S
O1245     Zr1813   2.372   1_645  S
O1245     Zr1539   2.385       .  S
O1245      H1250   0.966       .  S
O1246     Zr1836   2.372       .  S
O1246     Zr1540   2.383   1_554  S
H1247      O1520   0.965       .  S
H1249      O1541   0.965       .  S
O1263     Zr1275   2.438       .  S
O1263      C1265   1.288       .  A
O1264     Zr1301   2.424       .  S
O1264      C1265   1.287       .  A
C1265      C1491   1.485       .  S
O1266     Zr1278   2.433       .  S
O1266      C1268   1.287       .  A
O1267     Zr1302   2.430       .  S
O1267      C1268   1.288       .  A
C1268      C1457   1.481       .  S
O1269     Zr1278   2.438       .  S
O1269      C1271   1.288       .  A
O1270     Zr1301   2.416       .  S
O1270      C1271   1.286       .  A
C1271      C1425   1.479       .  S
O1272     Zr1275   2.435       .  S
O1272      C1274   1.288       .  A
O1273     Zr1302   2.428       .  S
O1273      C1274   1.287       .  A
C1274      C1381   1.485       .  S
Zr1275     O1276   2.434       .  S
Zr1275     O1277   2.435       .  S
Zr1275     O1281   2.367       .  S
Zr1275     O1282   2.368       .  S
Zr1275     O1305   2.373       .  S
Zr1275     O1307   2.371       .  S
O1276      H1319   0.990       .  S
O1277      H1318   0.991       .  S
O1277      H1322   0.990       .  S
Zr1278     O1279   2.434       .  S
Zr1278     O1280   2.433       .  S
Zr1278     O1282   2.369       .  S
Zr1278     O1281   2.368       .  S
Zr1278     O1306   2.372       .  S
Zr1278     O1308   2.374       .  S
O1279      H1320   0.990       .  S
O1279      H1323   0.990       .  S
O1280      H1313   0.989       .  S
O1281     Zr1301   2.375       .  S
O1282     Zr1302   2.384       .  S
O1282      H1309   0.966       .  S
O1283     Zr1295   2.444       .  S
O1283      C1285   1.289       .  A
O1284     Zr1302   2.424       .  S
O1284      C1285   1.287       .  A
C1285      C1337   1.478       .  S
O1286     Zr1298   2.439       .  S
O1286      C1288   1.288       .  A
O1287     Zr1301   2.416       .  S
O1287      C1288   1.286       .  A
C1288      C1447   1.479       .  S
O1289     Zr1298   2.439       .  S
O1289      C1291   1.288       .  A
O1290     Zr1302   2.425       .  S
O1290      C1291   1.287       .  A
C1291      C1359   1.483       .  S
O1292     Zr1295   2.448       .  S
O1292      C1294   1.290       .  A
O1293     Zr1301   2.416       .  S
O1293      C1294   1.286       .  A
C1294      C1403   1.485       .  S
Zr1295     O1296   2.436       .  S
Zr1295     O1297   2.435       .  S
Zr1295     O1303   2.372       .  S
Zr1295     O1304   2.367       .  S
Zr1295     O1307   2.371       .  S
Zr1295     O1305   2.375       .  S
O1296      H1316   0.990       .  S
O1296      H1321   0.990       .  S
O1297      H1317   0.990       .  S
Zr1298     O1299   2.434       .  S
Zr1298     O1300   2.436       .  S
Zr1298     O1304   2.370       .  S
Zr1298     O1303   2.373       .  S
Zr1298     O1308   2.371       .  S
Zr1298     O1306   2.369       .  S
O1299      H1315   0.990       .  S
O1300      H1314   0.990       .  S
O1300      H1324   0.990       .  S
Zr1301     O1304   2.374       .  S
Zr1301     O1306   2.385       .  S
Zr1301     O1307   2.381       .  S
Zr1302     O1303   2.385       .  S
Zr1302     O1305   2.387       .  S
Zr1302     O1308   2.383       .  S
O1303      H1311   0.965       .  S
O1306      H1310   0.966       .  S
O1307      H1312   0.965       .  S
C1325      C1326   1.400       .  A
C1325      C1330   1.401       .  A
C1326      C1327   1.395       .  A
C1326      H1339   1.084       .  S
C1327      C1328   1.415       .  A
C1327      H1340   1.077       .  S
C1328      C1334   1.429       .  A
C1328      C1329   1.422       .  A
C1329      C1331   1.399       .  A
C1329      C1330   1.405       .  A
C1330      H1341   1.085       .  S
C1331      C1332   1.390       .  A
C1331      H1342   1.084       .  S
C1332      C1333   1.400       .  A
C1332      H1343   1.084       .  S
C1333      C1334   1.423       .  A
C1333      C1338   1.406       .  A
C1334      C1335   1.414       .  A
C1335      C1336   1.395       .  A
C1335      H1344   1.077       .  S
C1336      C1337   1.399       .  A
C1336      H1345   1.083       .  S
C1337      C1338   1.402       .  A
C1338      H1346   1.085       .  S
C1347      C1348   1.401       .  A
C1347      C1352   1.404       .  A
C1348      C1349   1.392       .  A
C1348      H1361   1.083       .  S
C1349      C1350   1.413       .  A
C1349      H1362   1.077       .  S
C1350      C1356   1.428       .  A
C1350      C1351   1.422       .  A
C1351      C1353   1.400       .  A
C1351      C1352   1.405       .  A
C1352      H1363   1.084       .  S
C1353      C1354   1.390       .  A
C1353      H1364   1.084       .  S
C1354      C1355   1.400       .  A
C1354      H1365   1.084       .  S
C1355      C1356   1.421       .  A
C1355      C1360   1.405       .  A
C1356      C1357   1.414       .  A
C1357      C1358   1.393       .  A
C1357      H1366   1.077       .  S
C1358      C1359   1.402       .  A
C1358      H1367   1.083       .  S
C1359      C1360   1.404       .  A
C1360      H1368   1.084       .  S
C1369      C1370   1.401       .  A
C1369      C1374   1.406       .  A
C1370      C1371   1.394       .  A
C1370      H1383   1.083       .  S
C1371      C1372   1.414       .  A
C1371      H1384   1.077       .  S
C1372      C1378   1.428       .  A
C1372      C1373   1.421       .  A
C1373      C1375   1.401       .  A
C1373      C1374   1.406       .  A
C1374      H1385   1.084       .  S
C1375      C1376   1.392       .  A
C1375      H1386   1.084       .  S
C1376      C1377   1.400       .  A
C1376      H1387   1.084       .  S
C1377      C1378   1.422       .  A
C1377      C1382   1.408       .  A
C1378      C1379   1.412       .  A
C1379      C1380   1.392       .  A
C1379      H1388   1.076       .  S
C1380      C1381   1.402       .  A
C1380      H1389   1.083       .  S
C1381      C1382   1.405       .  A
C1382      H1390   1.084       .  S
C1391      C1392   1.402       .  A
C1391      C1396   1.404       .  A
C1392      C1393   1.393       .  A
C1392      H1405   1.083       .  S
C1393      C1394   1.413       .  A
C1393      H1406   1.077       .  S
C1394      C1400   1.428       .  A
C1394      C1395   1.422       .  A
C1395      C1397   1.400       .  A
C1395      C1396   1.406       .  A
C1396      H1407   1.084       .  S
C1397      C1398   1.391       .  A
C1397      H1408   1.084       .  S
C1398      C1399   1.400       .  A
C1398      H1409   1.084       .  S
C1399      C1400   1.422       .  A
C1399      C1404   1.406       .  A
C1400      C1401   1.414       .  A
C1401      C1402   1.394       .  A
C1401      H1410   1.077       .  S
C1402      C1403   1.402       .  A
C1402      H1411   1.083       .  S
C1403      C1404   1.404       .  A
C1404      H1412   1.084       .  S
C1413      C1414   1.401       .  A
C1413      C1418   1.403       .  A
C1414      C1415   1.392       .  A
C1414      H1427   1.083       .  S
C1415      C1416   1.413       .  A
C1415      H1428   1.077       .  S
C1416      C1422   1.428       .  A
C1416      C1417   1.423       .  A
C1417      C1419   1.399       .  A
C1417      C1418   1.406       .  A
C1418      H1429   1.084       .  S
C1419      C1420   1.390       .  A
C1419      H1430   1.084       .  S
C1420      C1421   1.400       .  A
C1420      H1431   1.084       .  S
C1421      C1422   1.422       .  A
C1421      C1426   1.404       .  A
C1422      C1423   1.414       .  A
C1423      C1424   1.393       .  A
C1423      H1432   1.077       .  S
C1424      C1425   1.401       .  A
C1424      H1433   1.083       .  S
C1425      C1426   1.403       .  A
C1426      H1434   1.084       .  S
C1435      C1436   1.401       .  A
C1435      C1440   1.402       .  A
C1436      C1437   1.393       .  A
C1436      H1449   1.083       .  S
C1437      C1438   1.413       .  A
C1437      H1450   1.077       .  S
C1438      C1444   1.428       .  A
C1438      C1439   1.423       .  A
C1439      C1441   1.399       .  A
C1439      C1440   1.405       .  A
C1440      H1451   1.085       .  S
C1441      C1442   1.390       .  A
C1441      H1452   1.084       .  S
C1442      C1443   1.400       .  A
C1442      H1453   1.084       .  S
C1443      C1444   1.422       .  A
C1443      C1448   1.404       .  A
C1444      C1445   1.415       .  A
C1445      C1446   1.394       .  A
C1445      H1454   1.077       .  S
C1446      C1447   1.401       .  A
C1446      H1455   1.084       .  S
C1447      C1448   1.402       .  A
C1448      H1456   1.084       .  S
C1457      C1458   1.402       .  A
C1457      C1462   1.402       .  A
C1458      C1459   1.394       .  A
C1458      H1471   1.083       .  S
C1459      C1460   1.413       .  A
C1459      H1472   1.077       .  S
C1460      C1466   1.430       .  A
C1460      C1461   1.423       .  A
C1461      C1463   1.399       .  A
C1461      C1462   1.406       .  A
C1462      H1473   1.084       .  S
C1463      C1464   1.390       .  A
C1463      H1474   1.084       .  S
C1464      C1465   1.400       .  A
C1464      H1475   1.084       .  S
C1465      C1466   1.421       .  A
C1465      C1470   1.405       .  A
C1466      C1467   1.416       .  A
C1467      C1468   1.397       .  A
C1467      H1476   1.077       .  S
C1468      C1469   1.401       .  A
C1468      H1477   1.083       .  S
C1469      C1470   1.403       .  A
C1470      H1478   1.084       .  S
C1479      C1480   1.402       .  A
C1479      C1484   1.405       .  A
C1480      C1481   1.395       .  A
C1480      H1493   1.083       .  S
C1481      C1482   1.414       .  A
C1481      H1494   1.077       .  S
C1482      C1488   1.430       .  A
C1482      C1483   1.422       .  A
C1483      C1485   1.400       .  A
C1483      C1484   1.407       .  A
C1484      H1495   1.084       .  S
C1485      C1486   1.391       .  A
C1485      H1496   1.084       .  S
C1486      C1487   1.400       .  A
C1486      H1497   1.084       .  S
C1487      C1488   1.422       .  A
C1487      C1492   1.406       .  A
C1488      C1489   1.414       .  A
C1489      C1490   1.394       .  A
C1489      H1498   1.077       .  S
C1490      C1491   1.403       .  A
C1490      H1499   1.083       .  S
C1491      C1492   1.404       .  A
C1492      H1500   1.084       .  S
O1501     Zr1513   2.437   1_655  S
O1501      C1503   1.288       .  A
O1502     Zr1839   2.425       .  S
O1502      C1503   1.287       .  A
C1503      C1713   1.481       .  S
O1504      C1506   1.288       .  A
O1505      C1506   1.287       .  A
C1506      C1669   1.485       .  S
O1507     Zr1516   2.446   1_655  S
O1507      C1509   1.289       .  A
O1508     Zr2139   2.423       .  S
O1508      C1509   1.287       .  A
C1509      C1779   1.488       .  S
O1510      C1512   1.289       .  A
O1511     Zr1540   2.421       .  S
O1511      C1512   1.286       .  A
C1512      C1769   1.481       .  S
Zr1513     O1514   2.433       .  S
Zr1513     O1519   2.372   1_455  S
Zr1513     O2145   2.372   1_455  S
O1514      H1557   0.990       .  S
Zr1516     O1517   2.434       .  S
Zr1516     O2144   2.371   1_455  S
O1517      H1561   0.990       .  S
O1519     Zr1839   2.379       .  S
O1520     Zr1540   2.380       .  S
O1521     Zr1533   2.444       .  S
O1521      C1523   1.289       .  A
O1522     Zr2140   2.415       .  S
O1522      C1523   1.286       .  A
C1523      C1647   1.483       .  S
O1524      C1526   1.288       .  A
O1525     Zr1539   2.420       .  S
O1525      C1526   1.287       .  A
C1526      C1691   1.482       .  S
O1527     Zr1536   2.442       .  S
O1527      C1529   1.288       .  A
O1528     Zr1840   2.420       .  S
O1528      C1529   1.286       .  A
C1529      C1625   1.477       .  S
O1530      C1532   1.286       .  A
O1531      C1532   1.287       .  A
C1532      C1735   1.479       .  S
Zr1533     O1534   2.437       .  S
Zr1533     O1535   2.435       .  S
Zr1533     O2143   2.370       .  S
O1534      H1554   0.990       .  S
O1534      H1559   0.990       .  S
O1535      H1555   0.990       .  S
Zr1536     O1537   2.435       .  S
Zr1536     O1538   2.435       .  S
Zr1536     O1541   2.367       .  S
Zr1536     O2146   2.371       .  S
O1538      H1552   0.990       .  S
O1538      H1562   0.990       .  S
Zr1539     O1802   2.426   1_545  S
Zr1539     O2108   2.424   1_545  S
Zr1539     O1819   2.377   1_545  S
Zr1539     O1542   2.378       .  S
Zr1539     O1544   2.385       .  S
Zr1540     O2122   2.416       .  S
Zr1540     O1828   2.418   1_556  S
Zr1540     O1841   2.379       .  S
Zr1540     O1543   2.378       .  S
O1541     Zr1840   2.379       .  S
O1543     Zr2133   2.371       .  S
O1544     Zr2116   2.370   1_645  S
O1544      H1548   0.966       .  S
O1545     Zr2113   2.373   1_645  S
O1545      H1550   0.966       .  S
O1546     Zr2136   2.372       .  S
O1563     Zr1575   2.438       .  S
O1563      C1565   1.288       .  A
O1564     Zr1601   2.422       .  S
O1564      C1565   1.287       .  A
C1565      C1791   1.485       .  S
O1566     Zr1578   2.433       .  S
O1566      C1568   1.287       .  A
O1567     Zr1602   2.431       .  S
O1567      C1568   1.288       .  A
C1568      C1757   1.482       .  S
O1569     Zr1578   2.436       .  S
O1569      C1571   1.287       .  A
O1570     Zr1601   2.417       .  S
O1570      C1571   1.286       .  A
C1571      C1725   1.479       .  S
O1572     Zr1575   2.434       .  S
O1572      C1574   1.288       .  A
O1573     Zr1602   2.428       .  S
O1573      C1574   1.288       .  A
C1574      C1681   1.485       .  S
Zr1575     O1576   2.434       .  S
Zr1575     O1577   2.435       .  S
Zr1575     O1581   2.367       .  S
Zr1575     O1582   2.368       .  S
Zr1575     O1605   2.372       .  S
Zr1575     O1607   2.370       .  S
O1576      H1619   0.990       .  S
O1577      H1618   0.991       .  S
O1577      H1622   0.990       .  S
Zr1578     O1579   2.434       .  S
Zr1578     O1580   2.433       .  S
Zr1578     O1582   2.368       .  S
Zr1578     O1581   2.368       .  S
Zr1578     O1606   2.373       .  S
Zr1578     O1608   2.374       .  S
O1579      H1620   0.990       .  S
O1579      H1623   0.990       .  S
O1580      H1613   0.989       .  S
O1581     Zr1601   2.375       .  S
O1582     Zr1602   2.384       .  S
O1582      H1609   0.966       .  S
O1583     Zr1595   2.445       .  S
O1583      C1585   1.290       .  A
O1584     Zr1602   2.423       .  S
O1584      C1585   1.287       .  A
C1585      C1637   1.478       .  S
O1586     Zr1598   2.439       .  S
O1586      C1588   1.288       .  A
O1587     Zr1601   2.417       .  S
O1587      C1588   1.286       .  A
C1588      C1747   1.479       .  S
O1589     Zr1598   2.440       .  S
O1589      C1591   1.289       .  A
O1590     Zr1602   2.423       .  S
O1590      C1591   1.287       .  A
C1591      C1659   1.483       .  S
O1592     Zr1595   2.449       .  S
O1592      C1594   1.290       .  A
O1593     Zr1601   2.416       .  S
O1593      C1594   1.286       .  A
C1594      C1703   1.485       .  S
Zr1595     O1596   2.436       .  S
Zr1595     O1597   2.435       .  S
Zr1595     O1603   2.372       .  S
Zr1595     O1604   2.368       .  S
Zr1595     O1607   2.370       .  S
Zr1595     O1605   2.374       .  S
O1596      H1616   0.990       .  S
O1596      H1621   0.990       .  S
O1597      H1617   0.990       .  S
Zr1598     O1599   2.434       .  S
Zr1598     O1600   2.435       .  S
Zr1598     O1604   2.370       .  S
Zr1598     O1603   2.373       .  S
Zr1598     O1608   2.371       .  S
Zr1598     O1606   2.369       .  S
O1599      H1615   0.990       .  S
O1600      H1614   0.990       .  S
O1600      H1624   0.990       .  S
Zr1601     O1604   2.373       .  S
Zr1601     O1606   2.384       .  S
Zr1601     O1607   2.381       .  S
Zr1602     O1603   2.385       .  S
Zr1602     O1605   2.386       .  S
Zr1602     O1608   2.383       .  S
O1603      H1611   0.965       .  S
O1606      H1610   0.966       .  S
O1607      H1612   0.965       .  S
C1625      C1626   1.400       .  A
C1625      C1630   1.401       .  A
C1626      C1627   1.395       .  A
C1626      H1639   1.084       .  S
C1627      C1628   1.415       .  A
C1627      H1640   1.077       .  S
C1628      C1634   1.429       .  A
C1628      C1629   1.422       .  A
C1629      C1631   1.400       .  A
C1629      C1630   1.405       .  A
C1630      H1641   1.085       .  S
C1631      C1632   1.391       .  A
C1631      H1642   1.084       .  S
C1632      C1633   1.400       .  A
C1632      H1643   1.084       .  S
C1633      C1634   1.423       .  A
C1633      C1638   1.407       .  A
C1634      C1635   1.414       .  A
C1635      C1636   1.394       .  A
C1635      H1644   1.077       .  S
C1636      C1637   1.399       .  A
C1636      H1645   1.083       .  S
C1637      C1638   1.402       .  A
C1638      H1646   1.085       .  S
C1647      C1648   1.402       .  A
C1647      C1652   1.404       .  A
C1648      C1649   1.393       .  A
C1648      H1661   1.083       .  S
C1649      C1650   1.413       .  A
C1649      H1662   1.077       .  S
C1650      C1656   1.428       .  A
C1650      C1651   1.422       .  A
C1651      C1653   1.400       .  A
C1651      C1652   1.405       .  A
C1652      H1663   1.084       .  S
C1653      C1654   1.390       .  A
C1653      H1664   1.084       .  S
C1654      C1655   1.400       .  A
C1654      H1665   1.084       .  S
C1655      C1656   1.422       .  A
C1655      C1660   1.405       .  A
C1656      C1657   1.414       .  A
C1657      C1658   1.394       .  A
C1657      H1666   1.077       .  S
C1658      C1659   1.402       .  A
C1658      H1667   1.083       .  S
C1659      C1660   1.404       .  A
C1660      H1668   1.084       .  S
C1669      C1670   1.401       .  A
C1669      C1674   1.405       .  A
C1670      C1671   1.394       .  A
C1670      H1683   1.083       .  S
C1671      C1672   1.414       .  A
C1671      H1684   1.077       .  S
C1672      C1678   1.429       .  A
C1672      C1673   1.421       .  A
C1673      C1675   1.401       .  A
C1673      C1674   1.406       .  A
C1674      H1685   1.084       .  S
C1675      C1676   1.392       .  A
C1675      H1686   1.084       .  S
C1676      C1677   1.400       .  A
C1676      H1687   1.084       .  S
C1677      C1678   1.423       .  A
C1677      C1682   1.408       .  A
C1678      C1679   1.412       .  A
C1679      C1680   1.392       .  A
C1679      H1688   1.076       .  S
C1680      C1681   1.402       .  A
C1680      H1689   1.083       .  S
C1681      C1682   1.404       .  A
C1682      H1690   1.084       .  S
C1691      C1692   1.402       .  A
C1691      C1696   1.404       .  A
C1692      C1693   1.392       .  A
C1692      H1705   1.083       .  S
C1693      C1694   1.413       .  A
C1693      H1706   1.077       .  S
C1694      C1700   1.428       .  A
C1694      C1695   1.422       .  A
C1695      C1697   1.399       .  A
C1695      C1696   1.406       .  A
C1696      H1707   1.084       .  S
C1697      C1698   1.391       .  A
C1697      H1708   1.084       .  S
C1698      C1699   1.400       .  A
C1698      H1709   1.084       .  S
C1699      C1700   1.422       .  A
C1699      C1704   1.406       .  A
C1700      C1701   1.414       .  A
C1701      C1702   1.394       .  A
C1701      H1710   1.077       .  S
C1702      C1703   1.402       .  A
C1702      H1711   1.083       .  S
C1703      C1704   1.404       .  A
C1704      H1712   1.084       .  S
C1713      C1714   1.401       .  A
C1713      C1718   1.403       .  A
C1714      C1715   1.392       .  A
C1714      H1727   1.083       .  S
C1715      C1716   1.413       .  A
C1715      H1728   1.077       .  S
C1716      C1722   1.428       .  A
C1716      C1717   1.423       .  A
C1717      C1719   1.400       .  A
C1717      C1718   1.406       .  A
C1718      H1729   1.084       .  S
C1719      C1720   1.390       .  A
C1719      H1730   1.084       .  S
C1720      C1721   1.400       .  A
C1720      H1731   1.084       .  S
C1721      C1722   1.422       .  A
C1721      C1726   1.404       .  A
C1722      C1723   1.415       .  A
C1723      C1724   1.393       .  A
C1723      H1732   1.077       .  S
C1724      C1725   1.400       .  A
C1724      H1733   1.083       .  S
C1725      C1726   1.403       .  A
C1726      H1734   1.084       .  S
C1735      C1736   1.401       .  A
C1735      C1740   1.401       .  A
C1736      C1737   1.393       .  A
C1736      H1749   1.083       .  S
C1737      C1738   1.413       .  A
C1737      H1750   1.077       .  S
C1738      C1744   1.428       .  A
C1738      C1739   1.423       .  A
C1739      C1741   1.399       .  A
C1739      C1740   1.404       .  A
C1740      H1751   1.085       .  S
C1741      C1742   1.389       .  A
C1741      H1752   1.084       .  S
C1742      C1743   1.400       .  A
C1742      H1753   1.084       .  S
C1743      C1744   1.422       .  A
C1743      C1748   1.404       .  A
C1744      C1745   1.415       .  A
C1745      C1746   1.394       .  A
C1745      H1754   1.077       .  S
C1746      C1747   1.401       .  A
C1746      H1755   1.084       .  S
C1747      C1748   1.402       .  A
C1748      H1756   1.084       .  S
C1757      C1758   1.402       .  A
C1757      C1762   1.402       .  A
C1758      C1759   1.394       .  A
C1758      H1771   1.083       .  S
C1759      C1760   1.413       .  A
C1759      H1772   1.077       .  S
C1760      C1766   1.430       .  A
C1760      C1761   1.423       .  A
C1761      C1763   1.399       .  A
C1761      C1762   1.406       .  A
C1762      H1773   1.084       .  S
C1763      C1764   1.390       .  A
C1763      H1774   1.084       .  S
C1764      C1765   1.400       .  A
C1764      H1775   1.084       .  S
C1765      C1766   1.421       .  A
C1765      C1770   1.404       .  A
C1766      C1767   1.416       .  A
C1767      C1768   1.397       .  A
C1767      H1776   1.077       .  S
C1768      C1769   1.401       .  A
C1768      H1777   1.083       .  S
C1769      C1770   1.402       .  A
C1770      H1778   1.084       .  S
C1779      C1780   1.402       .  A
C1779      C1784   1.405       .  A
C1780      C1781   1.394       .  A
C1780      H1793   1.083       .  S
C1781      C1782   1.414       .  A
C1781      H1794   1.077       .  S
C1782      C1788   1.430       .  A
C1782      C1783   1.422       .  A
C1783      C1785   1.400       .  A
C1783      C1784   1.407       .  A
C1784      H1795   1.084       .  S
C1785      C1786   1.391       .  A
C1785      H1796   1.084       .  S
C1786      C1787   1.400       .  A
C1786      H1797   1.084       .  S
C1787      C1788   1.422       .  A
C1787      C1792   1.406       .  A
C1788      C1789   1.414       .  A
C1789      C1790   1.394       .  A
C1789      H1798   1.077       .  S
C1790      C1791   1.402       .  A
C1790      H1799   1.083       .  S
C1791      C1792   1.404       .  A
C1792      H1800   1.084       .  S
O1801     Zr1813   2.435   1_655  S
O1801      C1803   1.288       .  A
O1802      C1803   1.287       .  A
C1803      C2013   1.480       .  S
O1804      C1806   1.288       .  A
O1805     Zr2140   2.422   1_564  S
O1805      C1806   1.287       .  A
C1806      C1969   1.485       .  S
O1807     Zr1816   2.445   1_655  S
O1807      C1809   1.289       .  A
O1808      C1809   1.287       .  A
C1809      C2079   1.488       .  S
O1810      C1812   1.289       .  A
O1811     Zr1840   2.423   1_565  S
O1811      C1812   1.287       .  A
C1812      C2069   1.483       .  S
Zr1813     O1814   2.434       .  S
Zr1813     O1819   2.372   1_455  S
O1814      H1857   0.990   1_455  S
Zr1816     O1817   2.434       .  S
Zr1816     O2119   2.372   1_454  S
O1817      H1861   0.990       .  S
O1819     Zr2116   2.373   1_655  S
O1820     Zr1840   2.380   1_565  S
O1820      H2147   0.965       .  S
O1821     Zr1833   2.442       .  S
O1821      C1823   1.288       .  A
O1822      C1823   1.286       .  A
C1823      C1947   1.482       .  S
O1824      C1826   1.288       .  A
O1825     Zr1839   2.422   1_554  S
O1825      C1826   1.287       .  A
C1826      C1991   1.482       .  S
O1827     Zr1836   2.444       .  S
O1827      C1829   1.289       .  A
O1828      C1829   1.286       .  A
C1829      C1925   1.477       .  S
O1830      C1832   1.286       .  A
O1831     Zr2139   2.428       .  S
O1831      C1832   1.288       .  A
C1832      C2035   1.479       .  S
Zr1833     O1834   2.437       .  S
Zr1833     O1835   2.435       .  S
Zr1833     O2141   2.367       .  S
O1834      H1854   0.990       .  S
O1834      H1859   0.990       .  S
O1835      H1855   0.990       .  S
Zr1836     O1837   2.434       .  S
Zr1836     O1838   2.435       .  S
Zr1836     O1841   2.366   1_554  S
O1838      H1852   0.990       .  S
O1838      H1862   0.990       .  S
Zr1839     O2131   2.426       .  S
Zr1839     O1842   2.378       .  S
Zr1839     O1844   2.387   1_556  S
Zr1839     O2145   2.387       .  S
Zr1840     O2105   2.421   1_545  S
Zr1840     O1843   2.378       .  S
Zr1840     O2146   2.383       .  S
O1841     Zr2133   2.366       .  S
O1841      H2149   0.965       .  S
O1844      H1848   0.966       .  S
O1845     Zr2139   2.386       .  S
O1845      H1850   0.966       .  S
O1846     Zr2140   2.382   1_554  S
H1847      O2120   0.965       .  S
H1849      O2141   0.965       .  S
O1863     Zr1875   2.438       .  S
O1863      C1865   1.288       .  A
O1864     Zr1901   2.425       .  S
O1864      C1865   1.287       .  A
C1865      C2091   1.486       .  S
O1866     Zr1878   2.433       .  S
O1866      C1868   1.287       .  A
O1867     Zr1902   2.431       .  S
O1867      C1868   1.288       .  A
C1868      C2057   1.481       .  S
O1869     Zr1878   2.436       .  S
O1869      C1871   1.287       .  A
O1870     Zr1901   2.417       .  S
O1870      C1871   1.286       .  A
C1871      C2025   1.479       .  S
O1872     Zr1875   2.436       .  S
O1872      C1874   1.288       .  A
O1873     Zr1902   2.429       .  S
O1873      C1874   1.288       .  A
C1874      C1981   1.486       .  S
Zr1875     O1876   2.434       .  S
Zr1875     O1877   2.434       .  S
Zr1875     O1881   2.367       .  S
Zr1875     O1882   2.368       .  S
Zr1875     O1905   2.373       .  S
Zr1875     O1907   2.371       .  S
O1876      H1919   0.990       .  S
O1877      H1918   0.991       .  S
O1877      H1922   0.990       .  S
Zr1878     O1879   2.434       .  S
Zr1878     O1880   2.433       .  S
Zr1878     O1882   2.370       .  S
Zr1878     O1881   2.368       .  S
Zr1878     O1906   2.372       .  S
Zr1878     O1908   2.374       .  S
O1879      H1920   0.990       .  S
O1879      H1923   0.990       .  S
O1880      H1913   0.990       .  S
O1881     Zr1901   2.375       .  S
O1882     Zr1902   2.385       .  S
O1882      H1909   0.966       .  S
O1883     Zr1895   2.443       .  S
O1883      C1885   1.289       .  A
O1884     Zr1902   2.427       .  S
O1884      C1885   1.287       .  A
C1885      C1937   1.479       .  S
O1886     Zr1898   2.439       .  S
O1886      C1888   1.288       .  A
O1887     Zr1901   2.417       .  S
O1887      C1888   1.286       .  A
C1888      C2047   1.479       .  S
O1889     Zr1898   2.440       .  S
O1889      C1891   1.289       .  A
O1890     Zr1902   2.424       .  S
O1890      C1891   1.287       .  A
C1891      C1959   1.483       .  S
O1892     Zr1895   2.448       .  S
O1892      C1894   1.290       .  A
O1893     Zr1901   2.416       .  S
O1893      C1894   1.286       .  A
C1894      C2003   1.485       .  S
Zr1895     O1896   2.436       .  S
Zr1895     O1897   2.435       .  S
Zr1895     O1903   2.372       .  S
Zr1895     O1904   2.367       .  S
Zr1895     O1907   2.371       .  S
Zr1895     O1905   2.375       .  S
O1896      H1916   0.990       .  S
O1896      H1921   0.990       .  S
O1897      H1917   0.990       .  S
Zr1898     O1899   2.433       .  S
Zr1898     O1900   2.435       .  S
Zr1898     O1904   2.370       .  S
Zr1898     O1903   2.373       .  S
Zr1898     O1908   2.371       .  S
Zr1898     O1906   2.369       .  S
O1899      H1915   0.990       .  S
O1900      H1914   0.990       .  S
O1900      H1924   0.990       .  S
Zr1901     O1904   2.374       .  S
Zr1901     O1906   2.384       .  S
Zr1901     O1907   2.381       .  S
Zr1902     O1903   2.385       .  S
Zr1902     O1905   2.386       .  S
Zr1902     O1908   2.383       .  S
O1903      H1911   0.965       .  S
O1906      H1910   0.966       .  S
O1907      H1912   0.965       .  S
C1925      C1926   1.400       .  A
C1925      C1930   1.401       .  A
C1926      C1927   1.395       .  A
C1926      H1939   1.084       .  S
C1927      C1928   1.415       .  A
C1927      H1940   1.077       .  S
C1928      C1934   1.430       .  A
C1928      C1929   1.422       .  A
C1929      C1931   1.400       .  A
C1929      C1930   1.405       .  A
C1930      H1941   1.085       .  S
C1931      C1932   1.390       .  A
C1931      H1942   1.084       .  S
C1932      C1933   1.400       .  A
C1932      H1943   1.084       .  S
C1933      C1934   1.423       .  A
C1933      C1938   1.407       .  A
C1934      C1935   1.414       .  A
C1935      C1936   1.395       .  A
C1935      H1944   1.077       .  S
C1936      C1937   1.400       .  A
C1936      H1945   1.083       .  S
C1937      C1938   1.402       .  A
C1938      H1946   1.085       .  S
C1947      C1948   1.401       .  A
C1947      C1952   1.404       .  A
C1948      C1949   1.392       .  A
C1948      H1961   1.083       .  S
C1949      C1950   1.413       .  A
C1949      H1962   1.077       .  S
C1950      C1956   1.428       .  A
C1950      C1951   1.422       .  A
C1951      C1953   1.400       .  A
C1951      C1952   1.405       .  A
C1952      H1963   1.084       .  S
C1953      C1954   1.390       .  A
C1953      H1964   1.084       .  S
C1954      C1955   1.400       .  A
C1954      H1965   1.084       .  S
C1955      C1956   1.421       .  A
C1955      C1960   1.405       .  A
C1956      C1957   1.414       .  A
C1957      C1958   1.393       .  A
C1957      H1966   1.077       .  S
C1958      C1959   1.402       .  A
C1958      H1967   1.083       .  S
C1959      C1960   1.404       .  A
C1960      H1968   1.084       .  S
C1969      C1970   1.401       .  A
C1969      C1974   1.405       .  A
C1970      C1971   1.394       .  A
C1970      H1983   1.083       .  S
C1971      C1972   1.414       .  A
C1971      H1984   1.077       .  S
C1972      C1978   1.429       .  A
C1972      C1973   1.421       .  A
C1973      C1975   1.400       .  A
C1973      C1974   1.406       .  A
C1974      H1985   1.084       .  S
C1975      C1976   1.391       .  A
C1975      H1986   1.084       .  S
C1976      C1977   1.400       .  A
C1976      H1987   1.084       .  S
C1977      C1978   1.422       .  A
C1977      C1982   1.408       .  A
C1978      C1979   1.412       .  A
C1979      C1980   1.392       .  A
C1979      H1988   1.077       .  S
C1980      C1981   1.402       .  A
C1980      H1989   1.083       .  S
C1981      C1982   1.405       .  A
C1982      H1990   1.084       .  S
C1991      C1992   1.402       .  A
C1991      C1996   1.403       .  A
C1992      C1993   1.392       .  A
C1992      H2005   1.083       .  S
C1993      C1994   1.413       .  A
C1993      H2006   1.077       .  S
C1994      C2000   1.428       .  A
C1994      C1995   1.422       .  A
C1995      C1997   1.400       .  A
C1995      C1996   1.406       .  A
C1996      H2007   1.084       .  S
C1997      C1998   1.391       .  A
C1997      H2008   1.084       .  S
C1998      C1999   1.400       .  A
C1998      H2009   1.084       .  S
C1999      C2000   1.421       .  A
C1999      C2004   1.406       .  A
C2000      C2001   1.414       .  A
C2001      C2002   1.394       .  A
C2001      H2010   1.077       .  S
C2002      C2003   1.402       .  A
C2002      H2011   1.083       .  S
C2003      C2004   1.404       .  A
C2004      H2012   1.084       .  S
C2013      C2014   1.401       .  A
C2013      C2018   1.403       .  A
C2014      C2015   1.392       .  A
C2014      H2027   1.083       .  S
C2015      C2016   1.413       .  A
C2015      H2028   1.077       .  S
C2016      C2022   1.428       .  A
C2016      C2017   1.423       .  A
C2017      C2019   1.400       .  A
C2017      C2018   1.406       .  A
C2018      H2029   1.084       .  S
C2019      C2020   1.390       .  A
C2019      H2030   1.084       .  S
C2020      C2021   1.400       .  A
C2020      H2031   1.084       .  S
C2021      C2022   1.422       .  A
C2021      C2026   1.404       .  A
C2022      C2023   1.414       .  A
C2023      C2024   1.393       .  A
C2023      H2032   1.077       .  S
C2024      C2025   1.400       .  A
C2024      H2033   1.083       .  S
C2025      C2026   1.403       .  A
C2026      H2034   1.084       .  S
C2035      C2036   1.401       .  A
C2035      C2040   1.402       .  A
C2036      C2037   1.393       .  A
C2036      H2049   1.083       .  S
C2037      C2038   1.413       .  A
C2037      H2050   1.077       .  S
C2038      C2044   1.428       .  A
C2038      C2039   1.423       .  A
C2039      C2041   1.399       .  A
C2039      C2040   1.405       .  A
C2040      H2051   1.085       .  S
C2041      C2042   1.390       .  A
C2041      H2052   1.084       .  S
C2042      C2043   1.400       .  A
C2042      H2053   1.084       .  S
C2043      C2044   1.422       .  A
C2043      C2048   1.404       .  A
C2044      C2045   1.415       .  A
C2045      C2046   1.394       .  A
C2045      H2054   1.077       .  S
C2046      C2047   1.401       .  A
C2046      H2055   1.084       .  S
C2047      C2048   1.403       .  A
C2048      H2056   1.084       .  S
C2057      C2058   1.402       .  A
C2057      C2062   1.402       .  A
C2058      C2059   1.394       .  A
C2058      H2071   1.083       .  S
C2059      C2060   1.413       .  A
C2059      H2072   1.077       .  S
C2060      C2066   1.430       .  A
C2060      C2061   1.423       .  A
C2061      C2063   1.399       .  A
C2061      C2062   1.407       .  A
C2062      H2073   1.084       .  S
C2063      C2064   1.390       .  A
C2063      H2074   1.084       .  S
C2064      C2065   1.400       .  A
C2064      H2075   1.084       .  S
C2065      C2066   1.421       .  A
C2065      C2070   1.405       .  A
C2066      C2067   1.416       .  A
C2067      C2068   1.396       .  A
C2067      H2076   1.077       .  S
C2068      C2069   1.401       .  A
C2068      H2077   1.083       .  S
C2069      C2070   1.403       .  A
C2070      H2078   1.084       .  S
C2079      C2080   1.402       .  A
C2079      C2084   1.405       .  A
C2080      C2081   1.395       .  A
C2080      H2093   1.083       .  S
C2081      C2082   1.414       .  A
C2081      H2094   1.077       .  S
C2082      C2088   1.430       .  A
C2082      C2083   1.422       .  A
C2083      C2085   1.400       .  A
C2083      C2084   1.407       .  A
C2084      H2095   1.084       .  S
C2085      C2086   1.391       .  A
C2085      H2096   1.084       .  S
C2086      C2087   1.400       .  A
C2086      H2097   1.084       .  S
C2087      C2088   1.422       .  A
C2087      C2092   1.406       .  A
C2088      C2089   1.414       .  A
C2089      C2090   1.395       .  A
C2089      H2098   1.077       .  S
C2090      C2091   1.403       .  A
C2090      H2099   1.083       .  S
C2091      C2092   1.404       .  A
C2092      H2100   1.084       .  S
O2101     Zr2113   2.436   1_655  S
O2101      C2103   1.288       .  A
O2102      C2103   1.287       .  A
C2103      C2313   1.480       .  S
O2104      C2106   1.289       .  A
O2105      C2106   1.287       .  A
C2106      C2269   1.485       .  S
O2107     Zr2116   2.444   1_655  S
O2107      C2109   1.289       .  A
O2108      C2109   1.287       .  A
C2109      C2379   1.487       .  S
O2110      C2112   1.289       .  A
O2111     Zr2140   2.420   1_565  S
O2111      C2112   1.286       .  A
C2112      C2369   1.481       .  S
Zr2113     O2114   2.433       .  S
Zr2113     O2119   2.371   1_455  S
O2114      H2157   0.990       .  S
Zr2116     O2117   2.434       .  S
O2117      H2161   0.990       .  S
O2120     Zr2140   2.379   1_565  S
O2121     Zr2133   2.445       .  S
O2121      C2123   1.289       .  A
O2122      C2123   1.286       .  A
C2123      C2247   1.483       .  S
O2124      C2126   1.288       .  A
O2125     Zr2139   2.421       .  S
O2125      C2126   1.287       .  A
C2126      C2291   1.482       .  S
O2127     Zr2136   2.443       .  S
O2127      C2129   1.289       .  A
O2128      C2129   1.286       .  A
C2129      C2225   1.478       .  S
O2130      C2132   1.286       .  A
O2131      C2132   1.287       .  A
C2132      C2335   1.479       .  S
Zr2133     O2134   2.438       .  S
Zr2133     O2135   2.435       .  S
O2134      H2154   0.990       .  S
O2134      H2159   0.990       .  S
O2135      H2155   0.990       .  S
Zr2136     O2137   2.434       .  S
Zr2136     O2138   2.435       .  S
Zr2136     O2141   2.367       .  S
O2138      H2152   0.990       .  S
O2138      H2162   0.990       .  S
Zr2139     O2142   2.377       .  S
Zr2139     O2144   2.386       .  S
Zr2140     O2143   2.377       .  S
O2144      H2148   0.966       .  S
O2145      H2150   0.966       .  S
O2163     Zr2175   2.438       .  S
O2163      C2165   1.288       .  A
O2164     Zr2201   2.423       .  S
O2164      C2165   1.287       .  A
C2165      C2391   1.485       .  S
O2166     Zr2178   2.433       .  S
O2166      C2168   1.287       .  A
O2167     Zr2202   2.432       .  S
O2167      C2168   1.288       .  A
C2168      C2357   1.482       .  S
O2169     Zr2178   2.434       .  S
O2169      C2171   1.287       .  A
O2170     Zr2201   2.418       .  S
O2170      C2171   1.286       .  A
C2171      C2325   1.478       .  S
O2172     Zr2175   2.434       .  S
O2172      C2174   1.288       .  A
O2173     Zr2202   2.429       .  S
O2173      C2174   1.288       .  A
C2174      C2281   1.485       .  S
Zr2175     O2176   2.434       .  S
Zr2175     O2177   2.435       .  S
Zr2175     O2181   2.367       .  S
Zr2175     O2182   2.368       .  S
Zr2175     O2205   2.373       .  S
Zr2175     O2207   2.370       .  S
O2176      H2219   0.990       .  S
O2177      H2218   0.991       .  S
O2177      H2222   0.990       .  S
Zr2178     O2179   2.435       .  S
Zr2178     O2180   2.433       .  S
Zr2178     O2182   2.369       .  S
Zr2178     O2181   2.369       .  S
Zr2178     O2206   2.373       .  S
Zr2178     O2208   2.373       .  S
O2179      H2220   0.990       .  S
O2179      H2223   0.990       .  S
O2180      H2213   0.990       .  S
O2181     Zr2201   2.375       .  S
O2182     Zr2202   2.384       .  S
O2182      H2209   0.966       .  S
O2183     Zr2195   2.444       .  S
O2183      C2185   1.289       .  A
O2184     Zr2202   2.426       .  S
O2184      C2185   1.287       .  A
C2185      C2237   1.479       .  S
O2186     Zr2198   2.439       .  S
O2186      C2188   1.288       .  A
O2187     Zr2201   2.417       .  S
O2187      C2188   1.286       .  A
C2188      C2347   1.479       .  S
O2189     Zr2198   2.441       .  S
O2189      C2191   1.289       .  A
O2190     Zr2202   2.422       .  S
O2190      C2191   1.287       .  A
C2191      C2259   1.483       .  S
O2192     Zr2195   2.449       .  S
O2192      C2194   1.290       .  A
O2193     Zr2201   2.418       .  S
O2193      C2194   1.286       .  A
C2194      C2303   1.486       .  S
Zr2195     O2196   2.436       .  S
Zr2195     O2197   2.435       .  S
Zr2195     O2203   2.372       .  S
Zr2195     O2204   2.367       .  S
Zr2195     O2207   2.370       .  S
Zr2195     O2205   2.375       .  S
O2196      H2216   0.990       .  S
O2196      H2221   0.990       .  S
O2197      H2217   0.990       .  S
Zr2198     O2199   2.434       .  S
Zr2198     O2200   2.435       .  S
Zr2198     O2204   2.370       .  S
Zr2198     O2203   2.373       .  S
Zr2198     O2208   2.371       .  S
Zr2198     O2206   2.368       .  S
O2199      H2215   0.990       .  S
O2200      H2214   0.990       .  S
O2200      H2224   0.990       .  S
Zr2201     O2204   2.373       .  S
Zr2201     O2206   2.384       .  S
Zr2201     O2207   2.381       .  S
Zr2202     O2203   2.386       .  S
Zr2202     O2205   2.386       .  S
Zr2202     O2208   2.383       .  S
O2203      H2211   0.965       .  S
O2206      H2210   0.966       .  S
O2207      H2212   0.965       .  S
C2225      C2226   1.400       .  A
C2225      C2230   1.401       .  A
C2226      C2227   1.395       .  A
C2226      H2239   1.084       .  S
C2227      C2228   1.415       .  A
C2227      H2240   1.077       .  S
C2228      C2234   1.430       .  A
C2228      C2229   1.422       .  A
C2229      C2231   1.400       .  A
C2229      C2230   1.405       .  A
C2230      H2241   1.085       .  S
C2231      C2232   1.390       .  A
C2231      H2242   1.084       .  S
C2232      C2233   1.400       .  A
C2232      H2243   1.084       .  S
C2233      C2234   1.423       .  A
C2233      C2238   1.407       .  A
C2234      C2235   1.414       .  A
C2235      C2236   1.395       .  A
C2235      H2244   1.077       .  S
C2236      C2237   1.400       .  A
C2236      H2245   1.083       .  S
C2237      C2238   1.402       .  A
C2238      H2246   1.085       .  S
C2247      C2248   1.402       .  A
C2247      C2252   1.404       .  A
C2248      C2249   1.393       .  A
C2248      H2261   1.083       .  S
C2249      C2250   1.413       .  A
C2249      H2262   1.077       .  S
C2250      C2256   1.428       .  A
C2250      C2251   1.422       .  A
C2251      C2253   1.400       .  A
C2251      C2252   1.406       .  A
C2252      H2263   1.084       .  S
C2253      C2254   1.390       .  A
C2253      H2264   1.084       .  S
C2254      C2255   1.400       .  A
C2254      H2265   1.084       .  S
C2255      C2256   1.422       .  A
C2255      C2260   1.405       .  A
C2256      C2257   1.414       .  A
C2257      C2258   1.393       .  A
C2257      H2266   1.077       .  S
C2258      C2259   1.401       .  A
C2258      H2267   1.083       .  S
C2259      C2260   1.404       .  A
C2260      H2268   1.084       .  S
C2269      C2270   1.401       .  A
C2269      C2274   1.405       .  A
C2270      C2271   1.394       .  A
C2270      H2283   1.083       .  S
C2271      C2272   1.415       .  A
C2271      H2284   1.077       .  S
C2272      C2278   1.429       .  A
C2272      C2273   1.421       .  A
C2273      C2275   1.400       .  A
C2273      C2274   1.406       .  A
C2274      H2285   1.084       .  S
C2275      C2276   1.391       .  A
C2275      H2286   1.084       .  S
C2276      C2277   1.400       .  A
C2276      H2287   1.084       .  S
C2277      C2278   1.423       .  A
C2277      C2282   1.408       .  A
C2278      C2279   1.412       .  A
C2279      C2280   1.393       .  A
C2279      H2288   1.077       .  S
C2280      C2281   1.403       .  A
C2280      H2289   1.083       .  S
C2281      C2282   1.404       .  A
C2282      H2290   1.084       .  S
C2291      C2292   1.402       .  A
C2291      C2296   1.403       .  A
C2292      C2293   1.392       .  A
C2292      H2305   1.083       .  S
C2293      C2294   1.413       .  A
C2293      H2306   1.077       .  S
C2294      C2300   1.429       .  A
C2294      C2295   1.422       .  A
C2295      C2297   1.399       .  A
C2295      C2296   1.406       .  A
C2296      H2307   1.084       .  S
C2297      C2298   1.391       .  A
C2297      H2308   1.084       .  S
C2298      C2299   1.400       .  A
C2298      H2309   1.084       .  S
C2299      C2300   1.422       .  A
C2299      C2304   1.406       .  A
C2300      C2301   1.414       .  A
C2301      C2302   1.394       .  A
C2301      H2310   1.077       .  S
C2302      C2303   1.402       .  A
C2302      H2311   1.083       .  S
C2303      C2304   1.404       .  A
C2304      H2312   1.084       .  S
C2313      C2314   1.401       .  A
C2313      C2318   1.403       .  A
C2314      C2315   1.392       .  A
C2314      H2327   1.083       .  S
C2315      C2316   1.413       .  A
C2315      H2328   1.077       .  S
C2316      C2322   1.427       .  A
C2316      C2317   1.423       .  A
C2317      C2319   1.400       .  A
C2317      C2318   1.406       .  A
C2318      H2329   1.084       .  S
C2319      C2320   1.390       .  A
C2319      H2330   1.084       .  S
C2320      C2321   1.400       .  A
C2320      H2331   1.084       .  S
C2321      C2322   1.422       .  A
C2321      C2326   1.404       .  A
C2322      C2323   1.414       .  A
C2323      C2324   1.393       .  A
C2323      H2332   1.077       .  S
C2324      C2325   1.400       .  A
C2324      H2333   1.083       .  S
C2325      C2326   1.403       .  A
C2326      H2334   1.084       .  S
C2335      C2336   1.402       .  A
C2335      C2340   1.401       .  A
C2336      C2337   1.393       .  A
C2336      H2349   1.083       .  S
C2337      C2338   1.413       .  A
C2337      H2350   1.077       .  S
C2338      C2344   1.428       .  A
C2338      C2339   1.423       .  A
C2339      C2341   1.399       .  A
C2339      C2340   1.404       .  A
C2340      H2351   1.085       .  S
C2341      C2342   1.389       .  A
C2341      H2352   1.084       .  S
C2342      C2343   1.400       .  A
C2342      H2353   1.084       .  S
C2343      C2344   1.422       .  A
C2343      C2348   1.404       .  A
C2344      C2345   1.415       .  A
C2345      C2346   1.394       .  A
C2345      H2354   1.077       .  S
C2346      C2347   1.401       .  A
C2346      H2355   1.084       .  S
C2347      C2348   1.402       .  A
C2348      H2356   1.084       .  S
C2357      C2358   1.402       .  A
C2357      C2362   1.402       .  A
C2358      C2359   1.394       .  A
C2358      H2371   1.083       .  S
C2359      C2360   1.413       .  A
C2359      H2372   1.077       .  S
C2360      C2366   1.430       .  A
C2360      C2361   1.423       .  A
C2361      C2363   1.399       .  A
C2361      C2362   1.406       .  A
C2362      H2373   1.084       .  S
C2363      C2364   1.390       .  A
C2363      H2374   1.084       .  S
C2364      C2365   1.400       .  A
C2364      H2375   1.084       .  S
C2365      C2366   1.422       .  A
C2365      C2370   1.405       .  A
C2366      C2367   1.416       .  A
C2367      C2368   1.396       .  A
C2367      H2376   1.077       .  S
C2368      C2369   1.401       .  A
C2368      H2377   1.083       .  S
C2369      C2370   1.403       .  A
C2370      H2378   1.084       .  S
C2379      C2380   1.402       .  A
C2379      C2384   1.405       .  A
C2380      C2381   1.394       .  A
C2380      H2393   1.083       .  S
C2381      C2382   1.414       .  A
C2381      H2394   1.077       .  S
C2382      C2388   1.430       .  A
C2382      C2383   1.422       .  A
C2383      C2385   1.400       .  A
C2383      C2384   1.407       .  A
C2384      H2395   1.084       .  S
C2385      C2386   1.391       .  A
C2385      H2396   1.084       .  S
C2386      C2387   1.400       .  A
C2386      H2397   1.084       .  S
C2387      C2388   1.422       .  A
C2387      C2392   1.406       .  A
C2388      C2389   1.414       .  A
C2389      C2390   1.395       .  A
C2389      H2398   1.077       .  S
C2390      C2391   1.403       .  A
C2390      H2399   1.083       .  S
C2391      C2392   1.404       .  A
C2392      H2400   1.084       .  S
