geometry optimzed in LAMMPS
_audit_creation_date              2020-11-30 
_audit_creation_method            'lammps2cif' 
_symmetry_space_group_name_H-M    'P1' 
_symmetry_Int_Tables_number       1 
_symmetry_cell_setting            triclinic 
loop_ 
_symmetry_equiv_pos_as_xyz 
  x,y,z 
_cell_length_a                    36.33979326 
_cell_length_b                    45.49393852014483 
_cell_length_c                    32.16747585277029 
_cell_angle_alpha                 90.21279016982865 
_cell_angle_beta                  89.97624223997677 
_cell_angle_gamma                 90.05215767486631 
loop_ 
_atom_site_label 
_atom_site_type_symbol 
_atom_site_fract_x 
_atom_site_fract_y 
_atom_site_fract_z 
_atom_site_charge 
C1          C  0.68019456  0.10324930  0.70655446    -0.11200
C2          C  0.66410912  0.13021685  0.69754630    -0.05100
C3          C  0.68072442  0.15672903  0.70853501    -0.11200
C4          C  0.71324142  0.15650961  0.73270789     0.09700
C5          C  0.72886768  0.12907282  0.74437724    -0.03000
C6          C  0.71235418  0.10228001  0.73111559     0.09500
C7          C  0.72847754  0.07542624  0.74242406    -0.13000
C8          C  0.76014470  0.07475687  0.76696459    -0.13000
C9          C  0.77719249  0.10092987  0.77994369     0.09500
C10         C  0.76170101  0.12840176  0.76815265    -0.03000
C11         C  0.73060487  0.18270421  0.74517256    -0.13100
C12         C  0.76253724  0.18205077  0.76937744    -0.13100
C13         C  0.77846694  0.15518202  0.78105694     0.09700
C14         C  0.81064969  0.15410627  0.80562590    -0.11200
C15         C  0.82611337  0.12702821  0.81552636    -0.05100
C16         C  0.80939154  0.10060076  0.80452850    -0.11200
H17         H  0.71632079  0.05475576  0.73279314     0.07000
H18         H  0.77150835  0.05360021  0.77536236     0.07000
H19         H  0.71925562  0.20384696  0.73666654     0.07200
H20         H  0.77492155  0.20271869  0.77865544     0.07200
H21         H  0.63995708  0.13061846  0.67762927     0.03600
H22         H  0.85025813  0.12651274  0.83545296     0.03600
Zr23       Zr  0.49975171  0.29178487  0.44264246     2.17500
O24         O  0.50576528  0.31577409  0.37530559    -0.51700
O25         O  0.50118630  0.34370010  0.46499068    -0.74900
O26         O  0.44027457  0.29957692  0.40786014    -0.81700
O27         O  0.60305718  0.26822465  0.43939559    -0.83400
O28         O  0.39492229  0.27673687  0.44409921    -0.79000
O29         O  0.55914758  0.29461572  0.40619906    -0.90700
O30         O  0.50091209  0.34541921  0.53548526    -0.76600
O31         O  0.46114454  0.29507725  0.50238976    -0.86100
O32         O  0.53970917  0.29334394  0.50108561    -0.85800
O33         O  0.46254510  0.24766292  0.44104643    -0.72600
O34         O  0.53392914  0.24646142  0.44068481    -0.84700
Zr35       Zr  0.49730261  0.20688938  0.56012935     2.26400
Zr36       Zr  0.42435581  0.25129228  0.50176176     2.06300
Zr37       Zr  0.57304922  0.24798347  0.50030704     2.10000
Zr38       Zr  0.50134071  0.29556210  0.56083945     1.78800
O39         O  0.61749224  0.21201547  0.47522603    -0.93500
O40         O  0.45064749  0.32021809  0.59622271    -0.41300
O41         O  0.53473158  0.25040560  0.56060357    -0.78000
O42         O  0.46331625  0.25261257  0.56220787    -0.96600
O43         O  0.45757285  0.20568600  0.50124173    -0.90000
O44         O  0.53661731  0.20395752  0.50079297    -0.92800
C45         C  0.50118326  0.35779985  0.49979195     1.01000
C46         C  0.59229842  0.28480730  0.40966481     1.13900
C47         C  0.40633365  0.29240358  0.41353801     1.04700
O48         O  0.38135214  0.28622206  0.53231725    -0.95000
O49         O  0.39312430  0.22710956  0.55900649    -0.90700
O50         O  0.43679474  0.20185558  0.59458782    -0.83800
C51         C  0.40334162  0.21057860  0.58911751     1.11300
O52         O  0.49308028  0.20778101  0.36681826    -0.96900
Zr53       Zr  0.49677394  0.20281326  0.44213947     1.88900
O54         O  0.49702430  0.15481758  0.53832584    -0.73600
O55         O  0.37743879  0.21932176  0.47189042    -0.52800
O56         O  0.44165528  0.17908876  0.41473619    -0.97500
O57         O  0.54904072  0.17873523  0.40886130    -0.54700
O58         O  0.49592908  0.15290732  0.46786934    -0.74100
C59         C  0.49632800  0.14059453  0.50363898     0.98300
O60         O  0.50161392  0.18177417  0.62680764    -0.62900
O61         O  0.61907382  0.28177519  0.52805618    -0.57700
O62         O  0.55633525  0.20447675  0.59795769    -0.94400
O63         O  0.60093458  0.22861516  0.56240155    -0.92800
O64         O  0.55889382  0.31564163  0.58738355    -0.93200
O65         O  0.50461892  0.29263821  0.63635778    -0.92000
C66         C  0.58980356  0.21354188  0.59347544     1.17100
H67         H  0.55603297  0.31005472  0.49958736     0.33000
H68         H  0.44910673  0.25454446  0.58743213     0.43900
H69         H  0.55220349  0.18680496  0.50202381     0.37400
H70         H  0.44801287  0.24636171  0.41600530     0.33900
H71         H  0.46183630  0.33783493  0.60927282     0.25700
H72         H  0.35449522  0.23103385  0.47294400     0.31600
H73         H  0.42898016  0.17076420  0.43928549     0.37500
H74         H  0.57351227  0.29823992  0.59557350     0.32000
H75         H  0.64294063  0.27194588  0.52293026     0.30900
H76         H  0.64085862  0.22306485  0.47257127     0.32600
H77         H  0.55975656  0.16581489  0.43039305     0.31500
H78         H  0.50040843  0.27160580  0.64260990     0.35500
H79         H  0.49241455  0.19600922  0.64764640     0.28200
H80         H  0.48952244  0.33322162  0.37638346     0.32500
H81         H  0.49306662  0.18743791  0.35577162     0.35300
H82         H  0.61907696  0.29896880  0.50931294     0.27900
H83         H  0.48296916  0.16589778  0.62605145     0.40800
H84         H  0.38815678  0.28717010  0.56208936     0.30900
H85         H  0.43518315  0.32816794  0.57357016     0.38500
H86         H  0.56745651  0.19456523  0.40525158     0.30300
H87         H  0.38357301  0.21805391  0.44195100     0.30400
H88         H  0.49414022  0.30232482  0.35497283     0.30700
Zr89       Zr  0.50240990  0.45623223  0.44331280     2.17500
O90         O  0.49990645  0.42978454  0.37719802    -0.51700
O91         O  0.50269862  0.40441117  0.46526656    -0.74900
O92         O  0.56247798  0.45208190  0.40917503    -0.81700
O93         O  0.40021624  0.47714962  0.43794161    -0.83400
O94         O  0.60558389  0.47759746  0.44558784    -0.79000
O95         O  0.44502923  0.45262697  0.40324272    -0.90700
O96         O  0.50031525  0.40297281  0.53569171    -0.76600
O97         O  0.54121981  0.45548626  0.50312857    -0.86100
O98         O  0.46212425  0.45323796  0.50160935    -0.85800
O99         O  0.53579091  0.00220444  0.44178692    -0.72600
O100        O  0.46511108  0.99979048  0.44168726    -0.84700
Zr101      Zr  0.49839370  0.04213269  0.56047457     2.26400
Zr102      Zr  0.57394867  0.50145090  0.50245503     2.06300
Zr103      Zr  0.42626453  0.49733409  0.50076332     2.10000
Zr104      Zr  0.50067797  0.45307439  0.56129502     1.78800
O105        O  0.37899190  0.02919584  0.47290896    -0.93500
O106        O  0.55418263  0.42992134  0.59302816    -0.41300
O107        O  0.46429111  0.49691872  0.56116827    -0.78000
O108        O  0.53505818  0.49780932  0.56253100    -0.96600
O109        O  0.53766149  0.04528789  0.50139115    -0.90000
O110        O  0.45898455  0.04296359  0.50135548    -0.92800
C111        C  0.50146622  0.39043712  0.49994372     1.01000
C112        C  0.41163634  0.46171536  0.40721432     1.13900
C113        C  0.59553669  0.46133908  0.41505266     1.04700
O114        O  0.62578628  0.47351097  0.52917361    -0.95000
O115        O  0.60249003  0.02475784  0.56241154    -0.90700
O116        O  0.55737918  0.04945090  0.59670769    -0.83800
C117        C  0.59107522  0.04116976  0.59225407     1.11300
O118        O  0.50318981  0.04224338  0.36675729    -0.96900
Zr119      Zr  0.49817537  0.04530773  0.44228017     1.88900
O120        O  0.49845694  0.09399042  0.53842399    -0.73600
O121        O  0.61321165  0.03859072  0.47150670    -0.52800
O122        O  0.55004540  0.07207716  0.41274460    -0.97500
O123        O  0.44205315  0.06221514  0.40842395    -0.54700
O124        O  0.49466976  0.09529503  0.46804154    -0.74100
C125        C  0.49638550  0.10790747  0.50371269     0.98300
O126        O  0.49057404  0.06574941  0.62807814    -0.62900
O127        O  0.38279430  0.46286913  0.53157370    -0.57700
O128        O  0.43827104  0.04550000  0.59490388    -0.94400
O129        O  0.39534875  0.01890484  0.55982114    -0.92800
O130        O  0.44631440  0.43179890  0.59374206    -0.93200
O131        O  0.50128040  0.45745778  0.63681999    -0.92000
C132        C  0.40529548  0.03569737  0.58972018     1.17100
H133        H  0.44672248  0.43597574  0.50008113     0.33000
H134        H  0.54904189  0.49636814  0.58791881     0.43900
H135        H  0.44212234  0.05933935  0.50261057     0.37400
H136        H  0.55020894  0.00418740  0.41677617     0.33900
H137        H  0.54406360  0.41340593  0.60944358     0.25700
H138        H  0.63841672  0.03059225  0.47427106     0.31600
H139        H  0.56175507  0.08222361  0.43660232     0.37500
H140        H  0.43048660  0.44883651  0.60067430     0.32000
H141        H  0.35821165  0.47122547  0.52564726     0.30900
H142        H  0.35610431  0.01739785  0.47397058     0.32600
H143        H  0.42983871  0.07507578  0.42910597     0.31500
H144        H  0.49266131  0.47773480  0.64242308     0.35500
H145        H  0.50051577  0.05168636  0.64857131     0.28200
H146        H  0.51745688  0.41325000  0.37975864     0.32500
H147        H  0.49827362  0.06234814  0.35644670     0.35300
H148        H  0.38419275  0.44484680  0.51437908     0.27900
H149        H  0.50780458  0.08261755  0.62849918     0.40800
H150        H  0.61455193  0.45863449  0.54761846     0.30900
H151        H  0.56723330  0.42026477  0.56966947     0.38500
H152        H  0.42609604  0.04459910  0.40665456     0.30300
H153        H  0.60798195  0.03738444  0.44135002     0.30400
H154        H  0.51094422  0.44304383  0.35630460     0.30700
C155        C  0.31162026  0.09620237  0.69890048    -0.11200
C156        C  0.32656738  0.12320767  0.68790414    -0.05100
C157        C  0.30983743  0.14959310  0.69878861    -0.11200
C158        C  0.27829798  0.14928017  0.72456970     0.09700
C159        C  0.26360535  0.12178473  0.73769427    -0.03000
C160        C  0.28019564  0.09505315  0.72454771     0.09500
C161        C  0.26492340  0.06811872  0.73709705    -0.13000
C162        C  0.23385831  0.06734311  0.76261193    -0.13000
C163        C  0.21688482  0.09347414  0.77580151     0.09500
C164        C  0.23179215  0.12098862  0.76313292    -0.03000
C165        C  0.26113390  0.17539621  0.73747421    -0.13100
C166        C  0.23036847  0.17463638  0.76352617    -0.13100
C167        C  0.21538270  0.14771965  0.77662294     0.09700
C168        C  0.18443599  0.14657670  0.80310347    -0.11200
C169        C  0.16951837  0.11952648  0.81402436    -0.05100
C170        C  0.18541780  0.09310425  0.80158384    -0.11200
H171        H  0.27716863  0.04748622  0.72750271     0.07000
H172        H  0.22301954  0.04615199  0.77178120     0.07000
H173        H  0.27177825  0.19656382  0.72792959     0.07200
H174        H  0.21815656  0.19526869  0.77316760     0.07200
H175        H  0.35030208  0.12364084  0.66732430     0.03600
H176        H  0.14607793  0.11901432  0.83501813     0.03600
Zr177      Zr  0.99929693  0.20658038  0.94524363     2.17500
O178        O  0.99140599  0.18141050  0.87882323    -0.51700
O179        O  0.99920644  0.15472351  0.96536821    -0.74900
O180        O  0.05919194  0.20002965  0.91031129    -0.81700
O181        O  0.89539773  0.22614747  0.94885232    -0.83400
O182        O  0.10388893  0.22469978  0.94507899    -0.79000
O183        O  0.93923511  0.20340494  0.91025555    -0.90700
O184        O  0.00119234  0.15303587  0.03578706    -0.76600
O185        O  0.03959455  0.20464327  0.00356046    -0.86100
O186        O  0.96116516  0.20389525  0.00531343    -0.85800
O187        O  0.03423019  0.25171007  0.94207032    -0.72600
O188        O  0.96283616  0.25058785  0.94549922    -0.84700
Zr189      Zr  0.00085795  0.29226960  0.06292587     2.26400
Zr190      Zr  0.07361840  0.24985153  0.00193432     2.06300
Zr191      Zr  0.92622260  0.24835618  0.00697413     2.10000
Zr192      Zr  0.00120361  0.20277425  0.06340543     1.78800
O193        O  0.87882338  0.28035545  0.97870013    -0.93500
O194        O  0.05617472  0.18092171  0.09364235    -0.41300
O195        O  0.96593019  0.24731178  0.06606600    -0.78000
O196        O  0.03619914  0.24723994  0.06326465    -0.96600
O197        O  0.03845951  0.29436558  0.00227979    -0.90000
O198        O  0.95986700  0.29362693  0.00519809    -0.92800
C199        C  0.99997827  0.14065717  0.99987153     1.01000
C200        C  0.90570686  0.21134666  0.91712454     1.13900
C201        C  0.09292094  0.20829613  0.91511516     1.04700
O202        O  0.12306035  0.21942197  0.02920732    -0.95000
O203        O  0.10479473  0.27342627  0.05949099    -0.90700
O204        O  0.06163093  0.29904968  0.09562331    -0.83800
C205        C  0.09493351  0.29012522  0.08964291     1.11300
O206        O  0.99370072  0.28983386  0.86918863    -0.96900
Zr207      Zr  0.99743658  0.29531896  0.94455465     1.88900
O208        O  0.99919658  0.34422758  0.04051139    -0.74000
O209        O  0.11432148  0.28561908  0.96962285    -0.52800
O210        O  0.04983169  0.31849481  0.91048011    -0.97500
O211        O  0.94219754  0.31775962  0.91563212    -0.54700
O212        O  0.99933049  0.34536691  0.96996616    -0.74100
C213        C  0.99938064  0.35807477  0.00558378     0.98300
O214        O  0.00782690  0.31488768  0.13127570    -0.62900
O215        O  0.88329196  0.21491948  0.04085260    -0.57700
O216        O  0.94122898  0.29660660  0.09978662    -0.94400
O217        O  0.89741972  0.26992380  0.06662051    -0.92800
O218        O  0.94679725  0.18075368  0.09482234    -0.93200
O219        O  0.00166522  0.20446691  0.13912147    -0.92000
C220        C  0.90796661  0.28689171  0.09594455     1.17100
H221        H  0.94537502  0.18684041  0.00423687     0.33000
H222        H  0.05100990  0.24578042  0.08807844     0.43900
H223        H  0.94342001  0.31023314  0.00707347     0.37400
H224        H  0.04817860  0.25317181  0.91662646     0.33900
H225        H  0.04741281  0.16264565  0.10703424     0.25700
H226        H  0.13882381  0.27612262  0.96981069     0.31600
H227        H  0.04044739  0.33756455  0.90021458     0.37500
H228        H  0.95376797  0.16009793  0.10034820     0.32000
H229        H  0.85860572  0.22289451  0.03445027     0.30900
H230        H  0.85593263  0.26853115  0.97929860     0.32600
H231        H  0.93199808  0.33021723  0.93813438     0.31500
H232        H  0.00094127  0.22569489  0.14600698     0.35500
H233        H  0.98810598  0.32978668  0.13374904     0.28200
H234        H  0.01112232  0.16644223  0.87723766     0.32500
H235        H  0.99241318  0.31004170  0.85795097     0.35300
H236        H  0.88470784  0.19623161  0.02514111     0.27900
H237        H  0.00118007  0.29928448  0.15123385     0.40800
H238        H  0.11588996  0.21519494  0.05826952     0.30900
H239        H  0.07070896  0.17398040  0.06949323     0.38500
H240        H  0.92445642  0.30134141  0.91284765     0.30300
H241        H  0.10709035  0.28570178  0.93996186     0.30400
H242        H  0.99775231  0.19614329  0.85749167     0.30700
Zr243      Zr  0.99723567  0.04194044  0.94164346     2.17500
O244        O  0.00329782  0.06783319  0.87570733    -0.51700
O245        O  0.99790219  0.09397119  0.96452127    -0.74900
O246        O  0.93729613  0.04777211  0.90649584    -0.81700
O247        O  0.10026949  0.02078026  0.94184101    -0.83400
O248        O  0.89359909  0.02173153  0.94086371    -0.79000
O249        O  0.05643444  0.04414673  0.90424914    -0.90700
O250        O  0.99917428  0.09573303  0.03499142    -0.76600
O251        O  0.95728464  0.04369306  0.00036507    -0.86100
O252        O  0.03597199  0.04493346  0.00120253    -0.85800
O253        O  0.96321806  0.49625622  0.93914904    -0.72600
O254        O  0.03378713  0.49802234  0.94160371    -0.84700
Zr255      Zr  0.99690504  0.45734260  0.06009363     2.26400
Zr256      Zr  0.92353403  0.99822262  0.99916246     2.06300
Zr257      Zr  0.07102163  0.00050539  0.00245682     2.10000
Zr258      Zr  0.99634563  0.04606308  0.05987382     1.78800
O259        O  0.12101669  0.47107415  0.97473177    -0.93500
O260        O  0.94137802  0.06977249  0.08763577    -0.41300
O261        O  0.03198949  0.00188452  0.06225929    -0.78000
O262        O  0.96116534  0.00192922  0.06024689    -0.96600
O263        O  0.95922252  0.45413580  0.99959804    -0.90000
O264        O  0.03786297  0.45545908  0.00229744    -0.92800
C265        C  0.99899494  0.10807667  0.99936523     1.01000
C266        C  0.08986471  0.03556987  0.91023340     1.13900
C267        C  0.90391456  0.03869903  0.91135030     1.04700
O268        O  0.87338290  0.02820371  0.02581380    -0.95000
O269        O  0.89295121  0.47633663  0.05811852    -0.90700
O270        O  0.93660873  0.45149504  0.09411316    -0.83800
C271        C  0.90324044  0.46042962  0.08882749     1.11300
O272        O  0.00194718  0.45478462  0.86619867    -0.96900
Zr273      Zr  0.00037559  0.45270481  0.94194476     1.88900
O274        O  0.99816230  0.40516788  0.03956038    -0.73600
O275        O  0.88086422  0.46269807  0.96997267    -0.52800
O276        O  0.94963455  0.42715784  0.90787572    -0.97500
O277        O  0.05813560  0.43390800  0.91370728    -0.54700
O278        O  0.00075345  0.40296984  0.96913337    -0.74100
C279        C  0.99948024  0.39079664  0.00506159     0.98300
O280        O  0.99249168  0.43478198  0.12854456    -0.62900
O281        O  0.11345001  0.03484907  0.03565001    -0.57700
O282        O  0.05663997  0.45379768  0.09615056    -0.94400
O283        O  0.10104819  0.47773891  0.05988303    -0.92800
O284        O  0.05088534  0.06691516  0.09262743    -0.93200
O285        O  0.99395406  0.04511639  0.13555083    -0.92000
C286        C  0.09021695  0.46207888  0.09040513     1.17100
H287        H  0.05179432  0.06194788  0.99999754     0.33000
H288        H  0.94673200  0.00406350  0.08524286     0.43900
H289        H  0.05448891  0.43900097  0.00452063     0.37400
H290        H  0.94930415  0.49435936  0.91373337     0.33900
H291        H  0.95068046  0.08647348  0.10443942     0.25700
H292        H  0.85738120  0.47350728  0.96697067     0.31600
H293        H  0.93717934  0.41609684  0.93029624     0.37500
H294        H  0.06514649  0.04973730  0.10238797     0.32000
H295        H  0.13816898  0.02634082  0.03091658     0.30900
H296        H  0.14365934  0.48242730  0.98082790     0.32600
H297        H  0.06937928  0.42219304  0.93622580     0.31500
H298        H  0.98874347  0.02435343  0.14255320     0.35500
H299        H  0.00977370  0.41796815  0.12814464     0.28200
H300        H  0.98470308  0.08372984  0.87630571     0.32500
H301        H  0.00626173  0.43433300  0.85673445     0.35300
H302        H  0.11295257  0.05282314  0.01847418     0.27900
H303        H  0.00340907  0.44912947  0.14816774     0.40800
H304        H  0.88434476  0.04785540  0.03040414     0.30900
H305        H  0.92969720  0.07922840  0.06332369     0.38500
H306        H  0.07421919  0.45138437  0.91107657     0.30300
H307        H  0.88944438  0.45953120  0.94109395     0.30400
H308        H  0.99457712  0.05386669  0.85424145     0.30700
C309        C  0.31668657  0.35326480  0.29812422    -0.11200
C310        C  0.33345648  0.38013751  0.30602802    -0.05100
C311        C  0.31740737  0.40660849  0.29432828    -0.11200
C312        C  0.28464354  0.40646116  0.27075563     0.09700
C313        C  0.26850521  0.37905427  0.25967777    -0.03000
C314        C  0.28463028  0.35224966  0.27330899     0.09500
C315        C  0.26839843  0.32542579  0.26178553    -0.13000
C316        C  0.23707037  0.32480985  0.23664253    -0.13000
C317        C  0.22017498  0.35102068  0.22383621     0.09500
C318        C  0.23564021  0.37845677  0.23601523    -0.03000
C319        C  0.26760360  0.43270223  0.25827933    -0.13100
C320        C  0.23529056  0.43211286  0.23477100    -0.13100
C321        C  0.21892000  0.40527034  0.22343761     0.09700
C322        C  0.18638900  0.40424615  0.19944941    -0.11200
C323        C  0.17101343  0.37714844  0.18906809    -0.05100
C324        C  0.18816611  0.35076000  0.19901553    -0.11200
H325        H  0.28033184  0.30476553  0.27152317     0.07000
H326        H  0.22568229  0.30367149  0.22789428     0.07000
H327        H  0.27939957  0.45382489  0.26640401     0.07200
H328        H  0.22304651  0.45280184  0.22564197     0.07200
H329        H  0.35778423  0.38062334  0.32569024     0.03600
H330        H  0.14678481  0.37662472  0.16926393     0.03600
C331        C  0.68436041  0.40218249  0.30146678    -0.11200
C332        C  0.66648815  0.37580292  0.31019163    -0.05100
C333        C  0.68070078  0.34882914  0.29743635    -0.11200
C334        C  0.71280813  0.34813173  0.27259233     0.09700
C335        C  0.73041871  0.37501848  0.26194009    -0.03000
C336        C  0.71604957  0.40222554  0.27631669     0.09500
C337        C  0.73387913  0.42856521  0.26569371    -0.13000
C338        C  0.76512348  0.42829199  0.24055563    -0.13000
C339        C  0.78021611  0.40161822  0.22672935     0.09500
C340        C  0.76323589  0.37466831  0.23825063    -0.03000
C341        C  0.72819890  0.32145089  0.25903671    -0.13100
C342        C  0.76076327  0.32109229  0.23595408    -0.13100
C343        C  0.77872955  0.34742400  0.22550735     0.09700
C344        C  0.81172786  0.34754740  0.20228589    -0.11200
C345        C  0.82780233  0.37416673  0.19116409    -0.05100
C346        C  0.81191587  0.40097941  0.20150580    -0.11200
H347        H  0.72335637  0.44957607  0.27622010     0.07000
H348        H  0.77780692  0.44906437  0.23253688     0.07000
H349        H  0.71522278  0.30069284  0.26651436     0.07200
H350        H  0.77191677  0.30005715  0.22642065     0.07200
H351        H  0.64274085  0.37610325  0.33073535     0.03600
H352        H  0.85205724  0.37398577  0.17137783     0.03600
C353        C  0.81478121  0.43230267  0.13896597    -0.02200
C354        C  0.82737659  0.42665491  0.17946992     0.07500
C355        C  0.86133643  0.43806559  0.19247546    -0.02300
C356        C  0.88501143  0.45139851  0.16348413    -0.02300
C357        C  0.87518092  0.45240633  0.12082359     0.07600
C358        C  0.83856480  0.44496890  0.10943283    -0.02500
Br359      Br  0.82073692  0.44966095  0.05329015    -0.01100
Br360      Br  0.76594958  0.41965165  0.12325436    -0.01100
Br361      Br  0.93079117  0.96986538  0.18346681    -0.01100
Br362      Br  0.87583623  0.43343333  0.24973726    -0.01100
C363        C  0.15292141  0.44174537  0.10606817    -0.02200
C364        C  0.11883886  0.45288386  0.12053371     0.07500
C365        C  0.11281846  0.45539656  0.16381449    -0.02300
C366        C  0.13789571  0.44258815  0.19182156    -0.02300
C367        C  0.17038194  0.42948640  0.17688565     0.07600
C368        C  0.17935948  0.43183870  0.13452977    -0.02500
Br369      Br  0.22659154  0.41793553  0.11530519    -0.01100
Br370      Br  0.16226289  0.43580720  0.04754992    -0.01100
Br371      Br  0.12688021  0.44089253  0.25029409    -0.01100
Br372      Br  0.07086167  0.47667148  0.18489119    -0.01100
C373        C  0.81745052  0.31425697  0.14225882    -0.02200
C374        C  0.82873185  0.32146472  0.18274523     0.07500
C375        C  0.86337566  0.31218380  0.19701808    -0.02300
C376        C  0.88829305  0.29863390  0.16948930    -0.02300
C377        C  0.87943087  0.29591934  0.12682309     0.07600
C378        C  0.84284582  0.30230479  0.11389156    -0.02500
Br379      Br  0.82723916  0.29830112  0.05677723    -0.01100
Br380      Br  0.76842390  0.32486499  0.12435027    -0.01100
Br381      Br  0.93387699  0.28337364  0.19101782    -0.01100
Br382      Br  0.87780430  0.32112150  0.25334841    -0.01100
C383        C  0.11687681  0.29798156  0.16319244    -0.02200
C384        C  0.12381240  0.29914985  0.11990549     0.07500
C385        C  0.15871728  0.30898246  0.10600351    -0.02300
C386        C  0.18367300  0.32141966  0.13450227    -0.02300
C387        C  0.17372336  0.32475261  0.17652377     0.07600
C388        C  0.14175185  0.31101209  0.19133417    -0.02500
Br389      Br  0.13180630  0.31154657  0.25014399    -0.01100
Br390      Br  0.07416174  0.27784458  0.18442350    -0.01100
Br391      Br  0.23035896  0.33665090  0.11571944    -0.01100
Br392      Br  0.17203224  0.30803929  0.04788203    -0.01100
C393        C  0.18113979  0.17865900  0.86523704    -0.02200
C394        C  0.16829096  0.17209943  0.82505918     0.07500
C395        C  0.13382533  0.18254400  0.81228657    -0.02300
C396        C  0.11042275  0.19655320  0.84098101    -0.02300
C397        C  0.12066741  0.19885860  0.88340121     0.07600
C398        C  0.15744775  0.19172978  0.89466468    -0.02500
Br399      Br  0.17587879  0.19754685  0.95040262    -0.01100
Br400      Br  0.23033338  0.16679193  0.88061664    -0.01100
Br401      Br  0.06534977  0.21369126  0.82089332    -0.01100
Br402      Br  0.11800291  0.17549811  0.75589653    -0.01100
C403        C  0.11105203  0.04286198  0.83601691    -0.02200
C404        C  0.11872978  0.04339935  0.87917644     0.07500
C405        C  0.15451228  0.05185750  0.89246701    -0.02300
C406        C  0.18048884  0.06187652  0.86339513    -0.02300
C407        C  0.16990993  0.06674956  0.82204713     0.07600
C408        C  0.13613742  0.05550323  0.80778494    -0.02500
Br409      Br  0.12347466  0.05997195  0.75002145    -0.01100
Br410      Br  0.06680603  0.02462255  0.81509869    -0.01100
Br411      Br  0.22954569  0.07274040  0.88072830    -0.01100
Br412      Br  0.16764186  0.05403072  0.95055052    -0.01100
C413        C  0.65774460  0.44130366  0.39714929    -0.02200
C414        C  0.62375172  0.45312756  0.38410160     0.07500
C415        C  0.61649976  0.45614005  0.34110830    -0.02300
C416        C  0.64016825  0.44298434  0.31191728    -0.02300
C417        C  0.67141930  0.42776808  0.32562060     0.07600
C418        C  0.68199290  0.42943038  0.36761382    -0.02500
Br419      Br  0.72797562  0.41220255  0.38490824    -0.01100
Br420      Br  0.66963025  0.43770463  0.45539395    -0.01100
Br421      Br  0.62894092  0.44365915  0.25338520    -0.01100
Br422      Br  0.57441756  0.47809118  0.32195715    -0.01100
C423        C  0.34751335  0.44644869  0.38663691    -0.02200
C424        C  0.38399363  0.45388345  0.37479918     0.07500
C425        C  0.39334847  0.45355422  0.33199505    -0.02300
C426        C  0.36817586  0.44233901  0.30260636    -0.02300
C427        C  0.33326393  0.43258961  0.31538391     0.07600
C428        C  0.32189034  0.43739046  0.35656564    -0.02500
Br429      Br  0.27244875  0.42673013  0.37279323    -0.01100
Br430      Br  0.33300363  0.44373605  0.44426177    -0.01100
Br431      Br  0.38237069  0.43683092  0.24534150    -0.01100
Br432      Br  0.44048827  0.46765256  0.31292994    -0.01100
C433        C  0.34192966  0.05471545  0.60622374    -0.02200
C434        C  0.37666330  0.04458652  0.62005594     0.07500
C435        C  0.38434790  0.04428781  0.66310564    -0.02300
C436        C  0.36041196  0.05844604  0.69107166    -0.02300
C437        C  0.32745635  0.07083680  0.67656102     0.07600
C438        C  0.31700336  0.06692722  0.63480824    -0.02500
Br439      Br  0.27037258  0.08234156  0.61598930    -0.01100
Br440      Br  0.32934437  0.05553067  0.54794348    -0.01100
Br441      Br  0.37443025  0.06400612  0.74833290    -0.01100
Br442      Br  0.42720782  0.02422862  0.68402225    -0.01100
C443        C  0.62992329  0.31231843  0.30682841    -0.02200
C444        C  0.66471348  0.32292685  0.31875947     0.07500
C445        C  0.67898191  0.31537769  0.35793110    -0.02300
C446        C  0.65632701  0.30155356  0.38760478    -0.02300
C447        C  0.61962870  0.29364533  0.37717545     0.07600
C448        C  0.60825452  0.29643511  0.33529039    -0.02500
Br449      Br  0.56388277  0.27744191  0.31612447    -0.01100
Br450      Br  0.61086082  0.32178837  0.25261874    -0.01100
Br451      Br  0.67570836  0.29636081  0.44286283    -0.01100
Br452      Br  0.72855339  0.32717325  0.37215864    -0.01100
C453        C  0.34514773  0.31534327  0.39520472    -0.02200
C454        C  0.37873871  0.30247983  0.38231182     0.07500
C455        C  0.38615187  0.30002416  0.33915496    -0.02300
C456        C  0.36293705  0.31374749  0.30995252    -0.02300
C457        C  0.33117782  0.32860528  0.32332075     0.07600
C458        C  0.32117134  0.32767564  0.36562934    -0.02500
Br459      Br  0.27622881  0.34654171  0.38335281    -0.01100
Br460      Br  0.33316831  0.31926436  0.45343766    -0.01100
Br461      Br  0.37578652  0.31445703  0.25178979    -0.01100
Br462      Br  0.42749422  0.27740709  0.31944147    -0.01100
C463        C  0.33967719  0.19131322  0.60626494    -0.02200
C464        C  0.37472249  0.20122720  0.61980286     0.07500
C465        C  0.38233167  0.20152530  0.66303583    -0.02300
C466        C  0.35775119  0.18818720  0.69121006    -0.02300
C467        C  0.32478848  0.17560800  0.67682912     0.07600
C468        C  0.31457670  0.17932256  0.63499202    -0.02500
Br469      Br  0.26760068  0.16433279  0.61648831    -0.01100
Br470      Br  0.32678887  0.19053991  0.54807290    -0.01100
Br471      Br  0.37028067  0.18450270  0.74920039    -0.01100
Br472      Br  0.42599655  0.22035499  0.68434157    -0.01100
C473        C  0.85821303  0.06261229  0.81024178    -0.02200
C474        C  0.82496560  0.07431027  0.82517954     0.07500
C475        C  0.81449504  0.06901505  0.86655317    -0.02300
C476        C  0.83985943  0.05694611  0.89477794    -0.02300
C477        C  0.87532496  0.04825870  0.88095422     0.07600
C478        C  0.88310979  0.04910627  0.83780610    -0.02500
Br479      Br  0.92678280  0.53107532  0.81536842    -0.01100
Br480      Br  0.87011589  0.06707058  0.75223216    -0.01100
Br481      Br  0.82646041  0.05591044  0.95281366    -0.01100
Br482      Br  0.76629378  0.08110526  0.88513619    -0.01100
C483        C  0.85874206  0.19259190  0.81478516    -0.02200
C484        C  0.82623521  0.17925452  0.82903551     0.07500
C485        C  0.81655274  0.18160473  0.87123303    -0.02300
C486        C  0.84190066  0.19285306  0.90017520    -0.02300
C487        C  0.87682377  0.20298995  0.88655846     0.07600
C488        C  0.88383693  0.20484976  0.84337668    -0.02500
Br489      Br  0.92732629  0.22448459  0.82299198    -0.01100
Br490      Br  0.86952896  0.19222249  0.75619989    -0.01100
Br491      Br  0.82906024  0.19102425  0.95837581    -0.01100
Br492      Br  0.77004239  0.16565806  0.88972036    -0.01100
C493        C  0.67656976  0.07526311  0.64069217    -0.02200
C494        C  0.66536055  0.07811397  0.68240077     0.07500
C495        C  0.63303942  0.06408738  0.69581062    -0.02300
C496        C  0.61004018  0.04985226  0.66675375    -0.02300
C497        C  0.61846577  0.05095210  0.62378790     0.07600
C498        C  0.65296484  0.06232812  0.61120859    -0.02500
Br499      Br  0.66702207  0.06329425  0.55333333    -0.01100
Br500      Br  0.72289754  0.09204077  0.62341566    -0.01100
Br501      Br  0.56777196  0.02827910  0.68627646    -0.01100
Br502      Br  0.61953154  0.06623150  0.75369102    -0.01100
C503        C  0.60769430  0.20616610  0.66871574    -0.02200
C504        C  0.61755669  0.20613668  0.62608956     0.07500
C505        C  0.65418049  0.19835589  0.61502375    -0.02300
C506        C  0.67824111  0.18698326  0.64523699    -0.02300
C507        C  0.66595803  0.18261107  0.68620338     0.07600
C508        C  0.63178610  0.19417613  0.69850928    -0.02500
Br509      Br  0.61729854  0.19120901  0.75595354    -0.01100
Br510      Br  0.56161297  0.22284871  0.68697307    -0.01100
Br511      Br  0.72671705  0.17343415  0.62961105    -0.01100
Br512      Br  0.67156377  0.20007853  0.55828566    -0.01100
C513        C  0.68002292  0.60331753  0.70665607    -0.11200
C514        C  0.66400665  0.63031531  0.69755460    -0.05100
C515        C  0.68068624  0.65684063  0.70844234    -0.11200
C516        C  0.71313490  0.65661770  0.73272468     0.09700
C517        C  0.72877124  0.62918123  0.74437835    -0.03000
C518        C  0.71226953  0.60237767  0.73110118     0.09500
C519        C  0.72850737  0.57553626  0.74226084    -0.13000
C520        C  0.76021859  0.57488120  0.76672912    -0.13000
C521        C  0.77716229  0.60105997  0.77986104     0.09500
C522        C  0.76158778  0.62852374  0.76819405    -0.03000
C523        C  0.73039119  0.68281617  0.74536732    -0.13100
C524        C  0.76224775  0.68217032  0.76969518    -0.13100
C525        C  0.77824118  0.65530595  0.78127979     0.09700
C526        C  0.81036978  0.65423853  0.80593871    -0.11200
C527        C  0.82585040  0.62717271  0.81584843    -0.05100
C528        C  0.80929246  0.60073838  0.80455567    -0.11200
H529        H  0.71639949  0.55485922  0.73258147     0.07000
H530        H  0.77166030  0.55372855  0.77501286     0.07000
H531        H  0.71900583  0.70395724  0.73691500     0.07200
H532        H  0.77453299  0.70284348  0.77912001     0.07200
H533        H  0.63987271  0.63072112  0.67761463     0.03600
H534        H  0.84994050  0.62666000  0.83585940     0.03600
Zr535      Zr  0.49954578  0.79198232  0.44277430     2.17500
O536        O  0.50509306  0.81695018  0.37607444    -0.51700
O537        O  0.50147515  0.84379664  0.46519646    -0.74900
O538        O  0.43988323  0.79963667  0.40822401    -0.81700
O539        O  0.60290372  0.76866867  0.43997862    -0.83400
O540        O  0.39443320  0.77731292  0.44494196    -0.79000
O541        O  0.55885145  0.79420736  0.40578257    -0.90700
O542        O  0.50162338  0.84543224  0.53569375    -0.76600
O543        O  0.46068352  0.79501112  0.50241384    -0.86100
O544        O  0.53930533  0.79351901  0.50147108    -0.85800
O545        O  0.46237912  0.74785833  0.44096047    -0.72600
O546        O  0.53387943  0.74677953  0.44071050    -0.84700
Zr547      Zr  0.49713337  0.70683496  0.55980572     2.26400
Zr548      Zr  0.42404620  0.75113079  0.50166180     2.06300
Zr549      Zr  0.57277596  0.74824190  0.50059352     2.10000
Zr550      Zr  0.50065087  0.79553378  0.56104567     1.78800
O551        O  0.61758814  0.71257320  0.47555835    -0.93500
O552        O  0.44986401  0.82097213  0.59513149    -0.41300
O553        O  0.53435903  0.75049525  0.56079802    -0.78000
O554        O  0.46287499  0.75243130  0.56211876    -0.96600
O555        O  0.45744477  0.70556169  0.50081364    -0.90000
O556        O  0.53650609  0.70416045  0.50055184    -0.92800
C557        C  0.50186699  0.85784459  0.50000901     1.01000
C558        C  0.59214774  0.78475539  0.40973056     1.13900
C559        C  0.40587533  0.79275887  0.41420602     1.04700
O560        O  0.38080434  0.78531338  0.53355306    -0.95000
O561        O  0.39277597  0.72633531  0.55833912    -0.90700
O562        O  0.43661197  0.70137610  0.59403300    -0.83800
C563        C  0.40308914  0.70987723  0.58847505     1.11300
O564        O  0.49246396  0.70691371  0.36630252    -0.96900
Zr565      Zr  0.49679571  0.70308404  0.44174865     1.88900
O566        O  0.49757648  0.65484264  0.53790252    -0.73600
O567        O  0.37705342  0.71969335  0.47078471    -0.52800
O568        O  0.44125613  0.68035983  0.41371008    -0.97500
O569        O  0.54937948  0.68030769  0.40731980    -0.54700
O570        O  0.49739907  0.65307450  0.46742506    -0.74100
C571        C  0.49753016  0.64068426  0.50317388     0.98300
O572        O  0.50131672  0.68131135  0.62618166    -0.62900
O573        O  0.61889973  0.78163918  0.52911589    -0.57700
O574        O  0.55607232  0.70430049  0.59777510    -0.94400
O575        O  0.60071432  0.72848534  0.56236645    -0.92800
O576        O  0.55748479  0.81550237  0.58964749    -0.93200
O577        O  0.50134044  0.79142206  0.63653480    -0.92000
C578        C  0.58956055  0.71331448  0.59331943     1.17100
H579        H  0.55567646  0.81020944  0.50015877     0.33000
H580        H  0.44857126  0.75419398  0.58729871     0.43900
H581        H  0.55219540  0.68706995  0.50176552     0.37400
H582        H  0.44781514  0.74662581  0.41593416     0.33900
H583        H  0.46096250  0.83899674  0.60712306     0.25700
H584        H  0.35392510  0.73105638  0.47337763     0.31600
H585        H  0.43174405  0.66770232  0.43627038     0.37500
H586        H  0.57136664  0.79813092  0.59942858     0.32000
H587        H  0.64273179  0.77172410  0.52406455     0.30900
H588        H  0.64096033  0.72367960  0.47347563     0.32600
H589        H  0.56295191  0.67000248  0.42960112     0.31500
H590        H  0.50001731  0.77002329  0.64188767     0.35500
H591        H  0.49222890  0.69543658  0.64722499     0.28200
H592        H  0.48858493  0.83422568  0.37764709     0.32500
H593        H  0.49300381  0.68644373  0.35573653     0.35300
H594        H  0.61914738  0.79890423  0.51051070     0.27900
H595        H  0.48263227  0.66546603  0.62527945     0.40800
H596        H  0.38751039  0.78566730  0.56338101     0.30900
H597        H  0.43426846  0.82817271  0.57209430     0.38500
H598        H  0.56553554  0.69695821  0.39962464     0.30300
H599        H  0.38247942  0.71955758  0.44062189     0.30400
H600        H  0.49366078  0.80368035  0.35536565     0.30700
Zr601      Zr  0.50228128  0.95623061  0.44353963     2.17500
O602        O  0.49944678  0.93023770  0.37709259    -0.51700
O603        O  0.50258658  0.90441648  0.46541179    -0.74900
O604        O  0.56231696  0.95184909  0.40943961    -0.81700
O605        O  0.39972719  0.97695193  0.43884836    -0.83400
O606        O  0.60551704  0.97712683  0.44604861    -0.79000
O607        O  0.44454175  0.95252104  0.40399415    -0.90700
O608        O  0.50202234  0.90298884  0.53588606    -0.76600
O609        O  0.54122339  0.95538641  0.50329165    -0.86100
O610        O  0.46225606  0.95318690  0.50199583    -0.85800
O611        O  0.53584742  0.50222739  0.44153458    -0.72600
O612        O  0.46523081  0.49981265  0.44136263    -0.84700
Zr613      Zr  0.49853965  0.54216777  0.56013005     2.26400
Zr614      Zr  0.57389574  0.00136241  0.50271600     2.06300
Zr615      Zr  0.42630851  0.99723933  0.50128734     2.10000
Zr616      Zr  0.50087927  0.95301246  0.56160657     1.78800
O617        O  0.37811764  0.52817510  0.47167647    -0.93500
O618        O  0.55458990  0.93120617  0.59472154    -0.41300
O619        O  0.46438176  0.99680769  0.56165369    -0.78000
O620        O  0.53504696  0.99782242  0.56289923    -0.96600
O621        O  0.53775534  0.54537128  0.50105897    -0.90000
O622        O  0.45905178  0.54302196  0.50100285    -0.92800
C623        C  0.50232910  0.89045976  0.50012846     1.01000
C624        C  0.41110724  0.96152099  0.40809683     1.13900
C625        C  0.59542965  0.96093929  0.41543786     1.04700
O626        O  0.62605447  0.97360715  0.52904504    -0.95000
O627        O  0.60283187  0.52484426  0.56197448    -0.90700
O628        O  0.55754636  0.54917479  0.59651095    -0.83800
C629        C  0.59130075  0.54107109  0.59197047     1.11300
O630        O  0.50053009  0.54133557  0.36633284    -0.96900
Zr631      Zr  0.49824580  0.54531478  0.44193300     1.88900
O632        O  0.49902582  0.59404858  0.53800727    -0.73600
O633        O  0.61290055  0.53887472  0.47111937    -0.52800
O634        O  0.55022009  0.57082665  0.41050494    -0.97500
O635        O  0.44214213  0.56349929  0.40940767    -0.54700
O636        O  0.49639064  0.59538384  0.46755083    -0.74100
C637        C  0.49766351  0.60798549  0.50324511     0.98300
O638        O  0.49105710  0.56565834  0.62788721    -0.62900
O639        O  0.38294798  0.96258922  0.53187430    -0.57700
O640        O  0.43844237  0.54570169  0.59449483    -0.94400
O641        O  0.39534718  0.51966712  0.55882848    -0.92800
O642        O  0.44647861  0.93083495  0.59272609    -0.93200
O643        O  0.50023881  0.95628273  0.63722148    -0.92000
C644        C  0.40536620  0.53623424  0.58895117     1.17100
H645        H  0.44692421  0.93588399  0.50051005     0.33000
H646        H  0.54898331  0.99642144  0.58832722     0.43900
H647        H  0.44224798  0.55943481  0.50227347     0.37400
H648        H  0.55019898  0.50426788  0.41648783     0.33900
H649        H  0.54528468  0.91301272  0.60789504     0.25700
H650        H  0.63820699  0.53117040  0.47428718     0.31600
H651        H  0.56251342  0.58115146  0.43382666     0.37500
H652        H  0.43054211  0.94766046  0.60034527     0.32000
H653        H  0.35834745  0.97080297  0.52568436     0.30900
H654        H  0.35531747  0.51637533  0.47417632     0.32600
H655        H  0.43064706  0.57654555  0.43038213     0.31500
H656        H  0.49244482  0.97671574  0.64321765     0.35500
H657        H  0.50089245  0.55148393  0.64830072     0.28200
H658        H  0.51680087  0.91355676  0.37944637     0.32500
H659        H  0.49702995  0.56157006  0.35579998     0.35300
H660        H  0.38461878  0.94451690  0.51480913     0.27900
H661        H  0.50843084  0.58243310  0.62838278     0.40800
H662        H  0.61625644  0.96286111  0.55334330     0.30900
H663        H  0.56999452  0.92412064  0.57137085     0.38500
H664        H  0.42563279  0.54620051  0.40787288     0.30300
H665        H  0.60796873  0.53739427  0.44091874     0.30400
H666        H  0.51065404  0.94355423  0.35638964     0.30700
C667        C  0.31112227  0.59608512  0.69824742    -0.11200
C668        C  0.32628914  0.62308577  0.68768433    -0.05100
C669        C  0.30955564  0.64945403  0.69858700    -0.11200
C670        C  0.27796984  0.64914751  0.72425933     0.09700
C671        C  0.26313212  0.62164718  0.73711319    -0.03000
C672        C  0.27956980  0.59491626  0.72369215     0.09500
C673        C  0.26405335  0.56797979  0.73582720    -0.13000
C674        C  0.23300371  0.56720369  0.76137313    -0.13000
C675        C  0.21628928  0.59334416  0.77497325     0.09500
C676        C  0.23133594  0.62085633  0.76255532    -0.03000
C677        C  0.26093091  0.67527136  0.73734335    -0.13100
C678        C  0.23019787  0.67450983  0.76343192    -0.13100
C679        C  0.21510856  0.64758942  0.77634027     0.09700
C680        C  0.18423094  0.64644812  0.80290946    -0.11200
C681        C  0.16921854  0.61941282  0.81366852    -0.05100
C682        C  0.18495536  0.59299504  0.80094464    -0.11200
H683        H  0.27613875  0.54735066  0.72595744     0.07000
H684        H  0.22200153  0.54601223  0.77029269     0.07000
H685        H  0.27168987  0.69644071  0.72797039     0.07200
H686        H  0.21810959  0.69514292  0.77326943     0.07200
H687        H  0.35012776  0.62354656  0.66725456     0.03600
H688        H  0.14585452  0.61889545  0.83477229     0.03600
Zr689      Zr  0.99906651  0.70662554  0.94485177     2.17500
O690        O  0.99101449  0.68270904  0.87755644    -0.51700
O691        O  0.99876007  0.65471148  0.96463783    -0.74900
O692        O  0.05914540  0.69997417  0.91002608    -0.81700
O693        O  0.89526939  0.72685722  0.94856504    -0.83400
O694        O  0.10374099  0.72508565  0.94440630    -0.79000
O695        O  0.93885706  0.70368607  0.91008392    -0.90700
O696        O  0.00038963  0.65297518  0.03506761    -0.76600
O697        O  0.03938220  0.70451912  0.00316327    -0.86100
O698        O  0.96090172  0.70385740  0.00498306    -0.85800
O699        O  0.03407121  0.75167104  0.94200212    -0.72600
O700        O  0.96271733  0.75065387  0.94562361    -0.84700
Zr701      Zr  0.00098493  0.79200496  0.06308718     2.26400
Zr702      Zr  0.07357774  0.74962968  0.00177452     2.06300
Zr703      Zr  0.92613562  0.74841811  0.00712242     2.10000
Zr704      Zr  0.00097998  0.70253928  0.06303442     1.78800
O705        O  0.87925612  0.78094424  0.97898306    -0.93500
O706        O  0.05464178  0.67896522  0.09369079    -0.41300
O707        O  0.96583955  0.74712885  0.06623815    -0.78000
O708        O  0.03620816  0.74689282  0.06307055    -0.96600
O709        O  0.03854179  0.79425035  0.00238981    -0.90000
O710        O  0.95997963  0.79354954  0.00545346    -0.92800
C711        C  0.99932243  0.64063983  0.99914700     1.01000
C712        C  0.90542702  0.71194352  0.91688027     1.13900
C713        C  0.09283509  0.70847004  0.91466891     1.04700
O714        O  0.12116037  0.71732970  0.02893365    -0.95000
O715        O  0.10479265  0.77316067  0.05944989    -0.90700
O716        O  0.06159269  0.79828270  0.09622554    -0.83800
C717        C  0.09491516  0.78952545  0.08998743     1.11300
O718        O  0.99255552  0.79079942  0.86935686    -0.96900
Zr719      Zr  0.99742054  0.79527335  0.94473275     1.88900
O720        O  0.99921578  0.84400274  0.04066723    -0.74000
O721        O  0.11592881  0.78448733  0.97009568    -0.52800
O722        O  0.05034118  0.81686420  0.90966816    -0.97500
O723        O  0.94235252  0.81814505  0.91606900    -0.54700
O724        O  0.99913676  0.84526005  0.97012178    -0.74100
C725        C  0.99913188  0.85790458  0.00576728     0.98300
O726        O  0.00829735  0.81502901  0.13112312    -0.62900
O727        O  0.88292966  0.71502413  0.04063339    -0.57700
O728        O  0.94140107  0.79646480  0.09999904    -0.94400
O729        O  0.89730070  0.77013008  0.06670499    -0.92800
O730        O  0.94619286  0.68113105  0.09441749    -0.93200
O731        O  0.00309585  0.70421587  0.13869887    -0.92000
C732        C  0.90802886  0.78700097  0.09607446     1.17100
H733        H  0.94500844  0.68686155  0.00385232     0.33000
H734        H  0.05104375  0.74526072  0.08783874     0.43900
H735        H  0.94359313  0.81018778  0.00740111     0.37400
H736        H  0.04795527  0.75318519  0.91652069     0.33900
H737        H  0.04535756  0.66004209  0.10465594     0.25700
H738        H  0.14012886  0.77452207  0.97082555     0.31600
H739        H  0.06322050  0.82834198  0.93145495     0.37500
H740        H  0.95276216  0.66036694  0.09977092     0.32000
H741        H  0.85831901  0.72330047  0.03463245     0.30900
H742        H  0.85618099  0.76935391  0.97955529     0.32600
H743        H  0.93255739  0.83089988  0.93847094     0.31500
H744        H  0.00225311  0.72543120  0.14563858     0.35500
H745        H  0.98908656  0.83039015  0.13299544     0.28200
H746        H  0.01016765  0.66729031  0.87587323     0.32500
H747        H  0.99372638  0.81113865  0.85856228     0.35300
H748        H  0.88399271  0.69650796  0.02448336     0.27900
H749        H  0.00084405  0.79980998  0.15131571     0.40800
H750        H  0.11516603  0.71498057  0.05875917     0.30900
H751        H  0.07015547  0.67329548  0.06967106     0.38500
H752        H  0.92428742  0.80192114  0.91373326     0.30300
H753        H  0.10919753  0.78466235  0.94028277     0.30400
H754        H  0.99827943  0.69761233  0.85683434     0.30700
Zr755      Zr  0.99720965  0.54204600  0.94134426     2.17500
O756        O  0.00340609  0.56708001  0.87477941    -0.51700
O757        O  0.99717747  0.59402514  0.96387932    -0.74900
O758        O  0.93731350  0.54773811  0.90603238    -0.81700
O759        O  0.10025707  0.52082025  0.94150618    -0.83400
O760        O  0.89363492  0.52186173  0.94067234    -0.79000
O761        O  0.05658824  0.54490506  0.90458721    -0.90700
O762        O  0.99906430  0.59577325  0.03434823    -0.76600
O763        O  0.95747430  0.54383929  0.00018698    -0.86100
O764        O  0.03592034  0.54527197  0.00093029    -0.85800
O765        O  0.96299140  0.99619205  0.93925810    -0.72600
O766        O  0.03360099  0.99773726  0.94173948    -0.84700
Zr767      Zr  0.99670947  0.95715842  0.06014837     2.26400
Zr768      Zr  0.92369601  0.49849286  0.99899420     2.06300
Zr769      Zr  0.07113214  0.50094675  0.00239731     2.10000
Zr770      Zr  0.99646072  0.54619886  0.05973659     1.78800
O771        O  0.11903258  0.96893555  0.97433911    -0.93500
O772        O  0.94274211  0.57098024  0.08869028    -0.41300
O773        O  0.03216473  0.50208244  0.06229492    -0.78000
O774        O  0.96126244  0.50204409  0.06007184    -0.96600
O775        O  0.95884439  0.95378744  0.99975590    -0.90000
O776        O  0.03750630  0.95519211  0.00224080    -0.92800
C777        C  0.99845999  0.60810172  0.99870080     1.01000
C778        C  0.08990166  0.53597320  0.91024826     1.13900
C779        C  0.90391997  0.53872728  0.91103134     1.04700
O780        O  0.87653371  0.53129661  0.02609334    -0.95000
O781        O  0.89305595  0.97688279  0.05899095    -0.90700
O782        O  0.93659888  0.95159898  0.09452134    -0.83800
C783        C  0.90334013  0.96084894  0.08955513     1.11300
O784        O  0.00336939  0.95606961  0.86641839    -0.96900
Zr785      Zr  0.99987510  0.95249191  0.94197139     1.88900
O786        O  0.99846318  0.90499369  0.03974859    -0.73600
O787        O  0.88188861  0.96156595  0.97011156    -0.52800
O788        O  0.94883855  0.92792938  0.90704944    -0.97500
O789        O  0.05626270  0.93087404  0.91427390    -0.54700
O790        O  0.99908911  0.90278556  0.96928184    -0.74100
C791        C  0.99888257  0.89061856  0.00524410     0.98300
O792        O  0.99242929  0.93334915  0.12778468    -0.62900
O793        O  0.11215995  0.53626839  0.03583480    -0.57700
O794        O  0.05618799  0.95407358  0.09670759    -0.94400
O795        O  0.10077545  0.97793812  0.06063724    -0.92800
O796        O  0.05221897  0.56541571  0.09189534    -0.93200
O797        O  0.99187405  0.54551301  0.13527850    -0.92000
C798        C  0.08977261  0.96237617  0.09120384     1.17100
H799        H  0.05162554  0.56235160  0.99965210     0.33000
H800        H  0.94669085  0.50405798  0.08499339     0.43900
H801        H  0.05405185  0.93868048  0.00441764     0.37400
H802        H  0.94910284  0.99435533  0.91381567     0.33900
H803        H  0.95229071  0.58963927  0.10043388     0.25700
H804        H  0.85735358  0.97099515  0.97116963     0.31600
H805        H  0.93490769  0.91816246  0.92956779     0.37500
H806        H  0.06361191  0.54831138  0.10582036     0.32000
H807        H  0.13698492  0.52748365  0.03339485     0.30900
H808        H  0.14220638  0.97989426  0.97915744     0.32600
H809        H  0.06650640  0.91871115  0.93693490     0.31500
H810        H  0.99117882  0.52438551  0.14252341     0.35500
H811        H  0.00982314  0.91661571  0.12676750     0.28200
H812        H  0.98513957  0.58321697  0.87516705     0.32500
H813        H  0.00582981  0.93561763  0.85614224     0.35300
H814        H  0.11281940  0.55355729  0.01731365     0.27900
H815        H  0.00323176  0.94734320  0.14798801     0.40800
H816        H  0.88363391  0.53498025  0.05535553     0.30900
H817        H  0.92818655  0.57711655  0.06420886     0.38500
H818        H  0.07357801  0.94757955  0.91170844     0.30300
H819        H  0.88801322  0.96087027  0.94014299     0.30400
H820        H  0.99425254  0.55298063  0.85372032     0.30700
C821        C  0.31615287  0.85325270  0.29869289    -0.11200
C822        C  0.33268867  0.88017872  0.30691031    -0.05100
C823        C  0.31650402  0.90663243  0.29533568    -0.11200
C824        C  0.28374642  0.90640935  0.27172176     0.09700
C825        C  0.26784333  0.87896281  0.26037147    -0.03000
C826        C  0.28419434  0.85218195  0.27374166     0.09500
C827        C  0.26823819  0.82532008  0.26189794    -0.13000
C828        C  0.23694257  0.82465178  0.23671078    -0.13000
C829        C  0.21976591  0.85083286  0.22424928     0.09500
C830        C  0.23494285  0.87829193  0.23676302    -0.03000
C831        C  0.26645374  0.93260552  0.25950343    -0.13100
C832        C  0.23405250  0.93194328  0.23613860    -0.13100
C833        C  0.21786843  0.90506881  0.22461852     0.09700
C834        C  0.18519110  0.90399154  0.20084878    -0.11200
C835        C  0.17011201  0.87684116  0.19016123    -0.05100
C836        C  0.18770239  0.85052275  0.19952847    -0.11200
H837        H  0.28036158  0.80467851  0.27142078     0.07000
H838        H  0.22576931  0.80349175  0.22771131     0.07000
H839        H  0.27807202  0.95375596  0.26780393     0.07200
H840        H  0.22157261  0.95260460  0.22729771     0.07200
H841        H  0.35696264  0.88069265  0.32665568     0.03600
H842        H  0.14582309  0.87626433  0.17045657     0.03600
C843        C  0.68429388  0.90205327  0.30139075    -0.11200
C844        C  0.66694198  0.87552932  0.31058619    -0.05100
C845        C  0.68174248  0.84861982  0.29846240    -0.11200
C846        C  0.71397851  0.84810024  0.27381974     0.09700
C847        C  0.73112304  0.87510631  0.26275083    -0.03000
C848        C  0.71609262  0.90226337  0.27640552     0.09500
C849        C  0.73343359  0.92872203  0.26532849    -0.13000
C850        C  0.76500371  0.92859226  0.24068623    -0.13000
C851        C  0.78080527  0.90197454  0.22765652     0.09500
C852        C  0.76408737  0.87494040  0.23930542    -0.03000
C853        C  0.72982953  0.82150043  0.26066797    -0.13100
C854        C  0.76232404  0.82133602  0.23748111    -0.13100
C855        C  0.77990730  0.84777324  0.22677815     0.09700
C856        C  0.81283189  0.84803610  0.20347476    -0.11200
C857        C  0.82901690  0.87470100  0.19282253    -0.05100
C858        C  0.81290070  0.90146176  0.20301598    -0.11200
H859        H  0.72235153  0.94969753  0.27524275     0.07000
H860        H  0.77737297  0.94943884  0.23243003     0.07000
H861        H  0.71720718  0.80065775  0.26842873     0.07200
H862        H  0.77378112  0.80035883  0.22815876     0.07200
H863        H  0.64309657  0.87572596  0.33098689     0.03600
H864        H  0.85336395  0.87459702  0.17317933     0.03600
C865        C  0.81540580  0.93257661  0.14027129    -0.02200
C866        C  0.82821436  0.92710189  0.18076445     0.07500
C867        C  0.86224474  0.93862220  0.19348942    -0.02300
C868        C  0.88563096  0.95206549  0.16430897    -0.02300
C869        C  0.87546570  0.95306398  0.12178363     0.07600
C870        C  0.83884162  0.94554099  0.11067339    -0.02500
Br871      Br  0.82055827  0.95058260  0.05478755    -0.01100
Br872      Br  0.76710854  0.91879218  0.12430339    -0.01100
Br873      Br  0.92998734  0.46911747  0.18322690    -0.01100
Br874      Br  0.87759407  0.93361683  0.25039725    -0.01100
C875        C  0.15218996  0.94177197  0.10736162    -0.02200
C876        C  0.11816631  0.95313660  0.12158544     0.07500
C877        C  0.11180222  0.95545919  0.16482989    -0.02300
C878        C  0.13655025  0.94236340  0.19298234    -0.02300
C879        C  0.16911094  0.92922194  0.17825439     0.07600
C880        C  0.17837052  0.93168977  0.13598885    -0.02500
Br881      Br  0.22566765  0.91776122  0.11705486    -0.01100
Br882      Br  0.16162306  0.93556567  0.04891594    -0.01100
Br883      Br  0.12504951  0.94051669  0.25132266    -0.01100
Br884      Br  0.06971060  0.97673593  0.18560871    -0.01100
C885        C  0.81815123  0.81562182  0.14239498    -0.02200
C886        C  0.82942431  0.82208829  0.18314601     0.07500
C887        C  0.86366997  0.81197749  0.19741717    -0.02300
C888        C  0.88835518  0.79834466  0.16970248    -0.02300
C889        C  0.87961140  0.79624652  0.12694210     0.07600
C890        C  0.84331002  0.80346616  0.11392244    -0.02500
Br891      Br  0.82792389  0.80023911  0.05664196    -0.01100
Br892      Br  0.76948400  0.82726048  0.12450672    -0.01100
Br893      Br  0.93347651  0.78211975  0.19103961    -0.01100
Br894      Br  0.87775802  0.81962351  0.25421059    -0.01100
C895        C  0.11686150  0.79737258  0.16360203    -0.02200
C896        C  0.12380205  0.79849394  0.12029245     0.07500
C897        C  0.15855079  0.80863223  0.10634751    -0.02300
C898        C  0.18333174  0.82135521  0.13478404    -0.02300
C899        C  0.17342572  0.82454307  0.17685104     0.07600
C900        C  0.14160342  0.81061228  0.19170117    -0.02500
Br901      Br  0.13139729  0.81158466  0.25047031    -0.01100
Br902      Br  0.07416222  0.77727371  0.18496559    -0.01100
Br903      Br  0.22950360  0.83737586  0.11570370    -0.01100
Br904      Br  0.17176568  0.80790179  0.04818391    -0.01100
C905        C  0.18090199  0.67816633  0.86544205    -0.02200
C906        C  0.16825254  0.67194884  0.82506625     0.07500
C907        C  0.13409543  0.68288194  0.81202967    -0.02300
C908        C  0.11075119  0.69706539  0.84061626    -0.02300
C909        C  0.12068309  0.69901019  0.88312367     0.07600
C910        C  0.15724526  0.69146562  0.89469492    -0.02500
Br911      Br  0.17536248  0.69712392  0.95059271    -0.01100
Br912      Br  0.22966942  0.66552234  0.88132082    -0.01100
Br913      Br  0.06625925  0.71504550  0.82041570    -0.01100
Br914      Br  0.11853655  0.67626007  0.75546186    -0.01100
C915        C  0.11061805  0.54311217  0.83600754    -0.02200
C916        C  0.11862018  0.54366875  0.87906205     0.07500
C917        C  0.15453012  0.55194183  0.89206661    -0.02300
C918        C  0.18038253  0.56179635  0.86274602    -0.02300
C919        C  0.16953344  0.56666632  0.82146474     0.07600
C920        C  0.13554363  0.55562727  0.80753855    -0.02500
Br921      Br  0.12213772  0.56051619  0.75006001    -0.01100
Br922      Br  0.06610214  0.52500925  0.81558682    -0.01100
Br923      Br  0.22952416  0.57270360  0.87972760    -0.01100
Br924      Br  0.16796655  0.55402355  0.95008228    -0.01100
C925        C  0.65756730  0.94069291  0.39734481    -0.02200
C926        C  0.62362046  0.95268803  0.38443228     0.07500
C927        C  0.61637657  0.95590180  0.34145782    -0.02300
C928        C  0.63996492  0.94279821  0.31212336    -0.02300
C929        C  0.67123384  0.92753415  0.32567021     0.07600
C930        C  0.68180896  0.92897526  0.36767315    -0.02500
Br931      Br  0.72771057  0.91143707  0.38472324    -0.01100
Br932      Br  0.66941288  0.93663907  0.45551726    -0.01100
Br933      Br  0.62863430  0.94369376  0.25362249    -0.01100
Br934      Br  0.57445411  0.97813901  0.32252778    -0.01100
C935        C  0.34693152  0.94617209  0.38771716    -0.02200
C936        C  0.38337581  0.95363620  0.37576701     0.07500
C937        C  0.39255692  0.95343425  0.33291119    -0.02300
C938        C  0.36718634  0.94245800  0.30354431    -0.02300
C939        C  0.33232614  0.93264712  0.31641453     0.07600
C940        C  0.32114172  0.93731835  0.35768909    -0.02500
Br941      Br  0.27166011  0.92687022  0.37399846    -0.01100
Br942      Br  0.33275244  0.94302946  0.44538719    -0.01100
Br943      Br  0.38094706  0.93751656  0.24605472    -0.01100
Br944      Br  0.43977769  0.96727753  0.31373384    -0.01100
C945        C  0.34212534  0.55558315  0.60513148    -0.02200
C946        C  0.37667444  0.54519740  0.61915317     0.07500
C947        C  0.38398423  0.54444320  0.66228204    -0.02300
C948        C  0.35977317  0.55826818  0.69028276    -0.02300
C949        C  0.32695874  0.57082625  0.67567351     0.07600
C950        C  0.31690101  0.56738853  0.63371706    -0.02500
Br951      Br  0.27027962  0.58273115  0.61480721    -0.01100
Br952      Br  0.33023915  0.55731270  0.54669147    -0.01100
Br953      Br  0.37307770  0.56299082  0.74790605    -0.01100
Br954      Br  0.42667907  0.52420643  0.68328508    -0.01100
C955        C  0.63063810  0.81239816  0.30724591    -0.02200
C956        C  0.66553698  0.82262141  0.31942051     0.07500
C957        C  0.67962173  0.81458063  0.35847725    -0.02300
C958        C  0.65666669  0.80076192  0.38790654    -0.02300
C959        C  0.61974791  0.79346342  0.37735478     0.07600
C960        C  0.60858116  0.79660968  0.33543876    -0.02500
Br961      Br  0.56403249  0.77816437  0.31572965    -0.01100
Br962      Br  0.61202790  0.82229561  0.25298574    -0.01100
Br963      Br  0.67616648  0.79457242  0.44294770    -0.01100
Br964      Br  0.72947875  0.82547794  0.37283406    -0.01100
C965        C  0.34452389  0.81549552  0.39579172    -0.02200
C966        C  0.37824146  0.80276398  0.38299794     0.07500
C967        C  0.38565517  0.80014076  0.33986992    -0.02300
C968        C  0.36247839  0.81379479  0.31058651    -0.02300
C969        C  0.33062862  0.82857285  0.32384315     0.07600
C970        C  0.32045847  0.82756801  0.36609157    -0.02500
Br971      Br  0.27509411  0.84595415  0.38349174    -0.01100
Br972      Br  0.33242857  0.81960536  0.45397500    -0.01100
Br973      Br  0.37549570  0.81447659  0.25248634    -0.01100
Br974      Br  0.42689560  0.77731202  0.32032181    -0.01100
C975        C  0.33942441  0.69063989  0.60581764    -0.02200
C976        C  0.37454132  0.70049486  0.61921972     0.07500
C977        C  0.38222938  0.70090843  0.66244003    -0.02300
C978        C  0.35762443  0.68778959  0.69076154    -0.02300
C979        C  0.32448910  0.67541662  0.67657594     0.07600
C980        C  0.31422510  0.67900768  0.63473136    -0.02500
Br981      Br  0.26707141  0.66418622  0.61650402    -0.01100
Br982      Br  0.32657419  0.68941138  0.54762155    -0.01100
Br983      Br  0.37047103  0.68390335  0.74864930    -0.01100
Br984      Br  0.42604284  0.71957944  0.68360462    -0.01100
C985        C  0.85803758  0.56265844  0.81004620    -0.02200
C986        C  0.82486714  0.57441601  0.82509288     0.07500
C987        C  0.81444085  0.56910775  0.86646534    -0.02300
C988        C  0.83986063  0.55707153  0.89465230    -0.02300
C989        C  0.87525654  0.54827303  0.88071047     0.07600
C990        C  0.88289873  0.54902306  0.83752306    -0.02500
Br991      Br  0.92731173  0.03154184  0.81582585    -0.01100
Br992      Br  0.86988709  0.56721158  0.75203476    -0.01100
Br993      Br  0.82666002  0.55628428  0.95276862    -0.01100
Br994      Br  0.76624161  0.58121546  0.88505356    -0.01100
C995        C  0.85867238  0.69259352  0.81472725    -0.02200
C996        C  0.82607250  0.67945393  0.82908834     0.07500
C997        C  0.81620957  0.68225280  0.87117682    -0.02300
C998        C  0.84144554  0.69380822  0.90000197    -0.02300
C999        C  0.87646102  0.70372150  0.88635035     0.07600
C1000       C  0.88360048  0.70521582  0.84317547    -0.02500
Br1001     Br  0.92700168  0.72488064  0.82262050    -0.01100
Br1002     Br  0.86998834  0.69122767  0.75629037    -0.01100
Br1003     Br  0.82828127  0.69272645  0.95814669    -0.01100
Br1004     Br  0.76964475  0.66648423  0.88979504    -0.01100
C1005       C  0.67636342  0.57574692  0.64049396    -0.02200
C1006       C  0.66532054  0.57818428  0.68231011     0.07500
C1007       C  0.63324361  0.56373375  0.69567425    -0.02300
C1008       C  0.61040896  0.54938898  0.66651884    -0.02300
C1009       C  0.61861914  0.55092995  0.62353144     0.07600
C1010       C  0.65272219  0.56298046  0.61091266    -0.02500
Br1011     Br  0.66580424  0.56551041  0.55286113    -0.01100
Br1012     Br  0.72244424  0.59295836  0.62324325    -0.01100
Br1013     Br  0.56844606  0.52731239  0.68581989    -0.01100
Br1014     Br  0.61977208  0.56538340  0.75358796    -0.01100
C1015       C  0.60761728  0.70614652  0.66851598    -0.02200
C1016       C  0.61731933  0.70581487  0.62585853     0.07500
C1017       C  0.65388259  0.69792444  0.61471727    -0.02300
C1018       C  0.67816614  0.68700468  0.64504388    -0.02300
C1019       C  0.66597536  0.68274711  0.68606723     0.07600
C1020       C  0.63182571  0.69436079  0.69835756    -0.02500
Br1021     Br  0.61769081  0.69199041  0.75594758    -0.01100
Br1022     Br  0.56158569  0.72295713  0.68669524    -0.01100
Br1023     Br  0.72701570  0.67421945  0.62968342    -0.01100
Br1024     Br  0.67078552  0.69874258  0.55776205    -0.01100
loop_ 
_geom_bond_atom_site_label_1 
_geom_bond_atom_site_label_2 
_geom_bond_distance 
_geom_bond_site_symmetry_2 
_ccdc_geom_bond_type 
C1            C2   1.391       .  A
C1            C6   1.412       .  A
C1          C494   1.481       .  S
C2            C3   1.393       .  A
C2           H21   1.087       .  S
C3            C4   1.415       .  A
C3          C507   1.483       .  S
C4            C5   1.423       .  A
C4           C11   1.405       .  A
C5            C6   1.422       .  A
C5           C10   1.418       .  A
C6            C7   1.405       .  A
C7            C8   1.396       .  A
C7           H17   1.083       .  S
C8            C9   1.404       .  A
C8           H18   1.083       .  S
C9           C10   1.424       .  A
C9           C16   1.413       .  A
C10          C13   1.422       .  A
C11          C12   1.398       .  A
C11          H19   1.083       .  S
C12          C13   1.405       .  A
C12          H20   1.083       .  S
C13          C14   1.413       .  A
C14          C15   1.393       .  A
C14         C484   1.480       .  S
C15          C16   1.391       .  A
C15          H22   1.087       .  S
C16         C474   1.483       .  S
Zr23         O24   2.439       .  S
Zr23         O25   2.467       .  S
Zr23         O26   2.461       .  S
Zr23         O29   2.459       .  S
Zr23         O31   2.383       .  S
Zr23         O32   2.377       .  S
Zr23         O33   2.420       .  S
Zr23         O34   2.409       .  S
O24          H80   0.990       .  S
O24          H88   0.989       .  S
O25          C45   1.288       .  A
O26          C47   1.289       .  A
O27         Zr37   2.426       .  S
O27          C46   1.282       .  A
O28         Zr36   2.438       .  S
O28          C47   1.285       .  A
O29          C46   1.290       .  A
O30         Zr38   2.413       .  S
O30          C45   1.281       .  A
O31         Zr36   2.398       .  S
O31         Zr38   2.381       .  S
O32         Zr37   2.394       .  S
O32         Zr38   2.376       .  S
O32          H67   0.965       .  S
O33         Zr36   2.401       .  S
O33         Zr53   2.391       .  S
O33          H70   0.965       .  S
O34         Zr37   2.389       .  S
O34         Zr53   2.401       .  S
Zr35         O60   2.439       .  S
Zr35         O54   2.468       .  S
Zr35         O62   2.469       .  S
Zr35         O50   2.473       .  S
Zr35         O41   2.401       .  S
Zr35         O42   2.421       .  S
Zr35         O43   2.383       .  S
Zr35         O44   2.387       .  S
Zr36         O55   2.436       .  S
Zr36         O48   2.434       .  S
Zr36         O49   2.429       .  S
Zr36         O42   2.406       .  S
Zr36         O43   2.401       .  S
Zr37         O39   2.435       .  S
Zr37         O61   2.438       .  S
Zr37         O63   2.410       .  S
Zr37         O41   2.389       .  S
Zr37         O44   2.400       .  S
Zr38         O64   2.435       .  S
Zr38         O65   2.436       .  S
Zr38         O40   2.437       .  S
Zr38         O41   2.387       .  S
Zr38         O42   2.393       .  S
O39          H76   0.990       .  S
O40          H71   0.990       .  S
O40          H85   0.990       .  S
O42          H68   0.965       .  S
O43         Zr53   2.378       .  S
O44         Zr53   2.379       .  S
O44          H69   0.966       .  S
C45         C111   1.485       .  S
C46         C447   1.497       .  S
C47         C454   1.493       .  S
O48          H84   0.990       .  S
O49          C51   1.284       .  A
O50          C51   1.291       .  A
C51         C464   1.496       .  S
O52         Zr53   2.438       .  S
O52          H81   0.990       .  S
Zr53         O56   2.438       .  S
Zr53         O57   2.439       .  S
Zr53         O58   2.420       .  S
O54          C59   1.288       .  A
O55          H72   0.990       .  S
O55          H87   0.990       .  S
O56          H73   0.990       .  S
O57          H77   0.990       .  S
O57          H86   0.990       .  S
O58          C59   1.282       .  A
C59         C125   1.487       .  S
O60          H79   0.989       .  S
O60          H83   0.990       .  S
O61          H75   0.990       .  S
O61          H82   0.989       .  S
O62          C66   1.292       .  A
O63          C66   1.280       .  A
O64          H74   0.990       .  S
O65          H78   0.990       .  S
C66         C504   1.495       .  S
Zr89         O90   2.441       .  S
Zr89         O91   2.464       .  S
Zr89         O92   2.450       .  S
Zr89         O95   2.457       .  S
Zr89         O97   2.386       .  S
Zr89         O98   2.383       .  S
Zr89        O611   2.420       .  S
Zr89        O612   2.401       .  S
O90         H146   0.990       .  S
O90         H154   0.989       .  S
O91         C111   1.287       .  A
O92         C113   1.286       .  A
O93        Zr103   2.410       .  S
O93         C112   1.280       .  A
O94        Zr102   2.415       .  S
O94         C113   1.280       .  A
O95         C112   1.288       .  A
O96        Zr104   2.421       .  S
O96         C111   1.282       .  A
O97        Zr102   2.405       .  S
O97        Zr104   2.384       .  S
O98        Zr103   2.393       .  S
O98        Zr104   2.377       .  S
O98         H133   0.965       .  S
O99        Zr119   2.391       .  S
O99        Zr601   2.420   1_545  S
O99        Zr614   2.401       .  S
O99         H136   0.964       .  S
O100       Zr119   2.393   1_565  S
O100       Zr601   2.400       .  S
O100       Zr615   2.383       .  S
Zr101       O126   2.439       .  S
Zr101       O120   2.466       .  S
Zr101       O128   2.454       .  S
Zr101       O116   2.462       .  S
Zr101       O109   2.381       .  S
Zr101       O110   2.382       .  S
Zr101       O619   2.404   1_545  S
Zr101       O620   2.419   1_545  S
Zr102       O114   2.432       .  S
Zr102       O633   2.434       .  S
Zr102       O627   2.426       .  S
Zr102       O108   2.400       .  S
Zr102       O611   2.400       .  S
Zr102       O621   2.394       .  S
Zr103       O127   2.438       .  S
Zr103       O617   2.433       .  S
Zr103       O641   2.402       .  S
Zr103       O107   2.385       .  S
Zr103       O612   2.381       .  S
Zr103       O622   2.395       .  S
Zr104       O130   2.435       .  S
Zr104       O131   2.437       .  S
Zr104       O106   2.438       .  S
Zr104       O107   2.394       .  S
Zr104       O108   2.387       .  S
O105       Zr615   2.433   1_545  S
O105        H142   0.990       .  S
O106        H137   0.990       .  S
O106        H151   0.990       .  S
O107       Zr613   2.405       .  S
O108       Zr613   2.418       .  S
O108        H134   0.965       .  S
O109       Zr119   2.383       .  S
O109       Zr614   2.395       .  S
O110       Zr119   2.377       .  S
O110       Zr615   2.394   1_545  S
O110        H135   0.966       .  S
C112        C424   1.490       .  S
C113        C414   1.476       .  S
O114        H150   0.989       .  S
O115       Zr614   2.426       .  S
O115        C117   1.283       .  A
O116        C117   1.289       .  A
C117        C497   1.488       .  S
O118       Zr119   2.440       .  S
O118        H147   0.991       .  S
Zr119       O122   2.438       .  S
Zr119       O123   2.439       .  S
Zr119       O124   2.421       .  S
O120        C125   1.288       .  A
O121       Zr614   2.434       .  S
O121        H138   0.990       .  S
O121        H153   0.990       .  S
O122        H139   0.990       .  S
O123        H143   0.990       .  S
O123        H152   0.990       .  S
O124        C125   1.283       .  A
O126        H145   0.989       .  S
O126        H149   0.990       .  S
O127        H141   0.990       .  S
O127        H148   0.989       .  S
O128        C132   1.289       .  A
O129       Zr615   2.402   1_545  S
O129        C132   1.278       .  A
O130        H140   0.990       .  S
O131        H144   0.990       .  S
C132        C434   1.482       .  S
C155        C156   1.390       .  A
C155        C160   1.410       .  A
C155        C437   1.474       .  S
C156        C157   1.390       .  A
C156        H175   1.087       .  S
C157        C158   1.415       .  A
C157        C467   1.483       .  S
C158        C159   1.425       .  A
C158        C165   1.404       .  A
C159        C160   1.421       .  A
C159        C164   1.417       .  A
C160        C161   1.405       .  A
C161        C162   1.396       .  A
C161        H171   1.083       .  S
C162        C163   1.404       .  A
C162        H172   1.083       .  S
C163        C164   1.424       .  A
C163        C170   1.412       .  A
C164        C167   1.421       .  A
C165        C166   1.397       .  A
C165        H173   1.083       .  S
C166        C167   1.406       .  A
C166        H174   1.083       .  S
C167        C168   1.412       .  A
C168        C169   1.391       .  A
C168        C394   1.479       .  S
C169        C170   1.392       .  A
C169        H176   1.087       .  S
C170        C407   1.481       .  S
Zr177       O178   2.437       .  S
Zr177       O179   2.449       .  S
Zr177       O180   2.467   1_655  S
Zr177       O183   2.460       .  S
Zr177       O185   2.382   1_656  S
Zr177       O186   2.381   1_556  S
Zr177       O187   2.415   1_655  S
Zr177       O188   2.402       .  S
O178        H234   0.990   1_655  S
O178        H242   0.988       .  S
O179        C199   1.284       .  A
O180        C201   1.291       .  A
O181       Zr191   2.399   1_556  S
O181        C200   1.277       .  A
O182       Zr190   2.419   1_556  S
O182        C201   1.280       .  A
O183        C200   1.290       .  A
O184       Zr192   2.428       .  S
O184        C199   1.284   1_454  A
O185       Zr190   2.400       .  S
O185       Zr192   2.379       .  S
O186       Zr191   2.390       .  S
O186       Zr192   2.370   1_655  S
O186        H221   0.965       .  S
O187       Zr190   2.402   1_556  S
O187       Zr207   2.395   1_455  S
O187        H224   0.965       .  S
O188       Zr191   2.385   1_556  S
O188       Zr207   2.391       .  S
Zr189       O214   2.437       .  S
Zr189       O208   2.475   1_455  S
Zr189       O216   2.477   1_455  S
Zr189       O204   2.465       .  S
Zr189       O195   2.409   1_455  S
Zr189       O196   2.419       .  S
Zr189       O197   2.383       .  S
Zr189       O198   2.382   1_455  S
Zr190       O209   2.434   1_554  S
Zr190       O202   2.435       .  S
Zr190       O203   2.418       .  S
Zr190       O196   2.399       .  S
Zr190       O197   2.395       .  S
Zr191       O193   2.435   1_554  S
Zr191       O215   2.438       .  S
Zr191       O217   2.393       .  S
Zr191       O195   2.388       .  S
Zr191       O198   2.395       .  S
Zr192       O218   2.436   1_455  S
Zr192       O219   2.437       .  S
Zr192       O194   2.437       .  S
Zr192       O195   2.400   1_455  S
Zr192       O196   2.388       .  S
O193        H230   0.990       .  S
O194        H225   0.990       .  S
O194        H239   0.990       .  S
O196        H222   0.965       .  S
O197       Zr207   2.382   1_454  S
O198       Zr207   2.382   1_554  S
O198        H223   0.965       .  S
C199        C265   1.483       .  S
C200        C487   1.487       .  S
C201        C397   1.496       .  S
O202        H238   0.990       .  S
O203        C205   1.281       .  A
O204        C205   1.291       .  A
C205        C384   1.488       .  S
O206       Zr207   2.440       .  S
O206        H235   0.990       .  S
Zr207       O210   2.438   1_655  S
Zr207       O211   2.439       .  S
Zr207       O212   2.417       .  S
O208        C213   1.290       .  A
O209        H226   0.990       .  S
O209        H241   0.990       .  S
O210        H227   0.990       .  S
O211        H231   0.990       .  S
O211        H240   0.990       .  S
O212        C213   1.281   1_556  A
C213        C279   1.489       .  S
O214        H233   0.990   1_455  S
O214        H237   0.989       .  S
O215        H229   0.990       .  S
O215        H236   0.989       .  S
O216        C220   1.292       .  A
O217        C220   1.276       .  A
O218        H228   0.990       .  S
O219        H232   0.990       .  S
C220        C377   1.492       .  S
Zr243       O244   2.440   1_655  S
Zr243       O245   2.476       .  S
Zr243       O246   2.470       .  S
Zr243       O249   2.466   1_655  S
Zr243       O251   2.383   1_556  S
Zr243       O252   2.381   1_656  S
Zr243       O765   2.425   1_545  S
Zr243       O766   2.407   1_645  S
O244        H300   0.990   1_455  S
O244        H308   0.989   1_455  S
O245        C265   1.290       .  A
O246        C267   1.291       .  A
O247       Zr257   2.407   1_556  S
O247        C266   1.279       .  A
O248       Zr256   2.421   1_545  S
O248        C267   1.282       .  A
O249        C266   1.291       .  A
O250       Zr258   2.402       .  S
O250        C265   1.278   1_554  A
O251       Zr256   2.404   1_544  S
O251       Zr258   2.386       .  S
O252       Zr257   2.391       .  S
O252       Zr258   2.374   1_455  S
O252        H287   0.965   1_554  S
O253       Zr273   2.401   1_655  S
O253       Zr755   2.422       .  S
O253       Zr768   2.403       .  S
O253        H290   0.965       .  S
O254       Zr273   2.392       .  S
O254       Zr755   2.405   1_455  S
O254       Zr769   2.384   1_556  S
Zr255       O280   2.438       .  S
Zr255       O274   2.462       .  S
Zr255       O282   2.467   1_655  S
Zr255       O270   2.463       .  S
Zr255       O263   2.384   1_554  S
Zr255       O264   2.382   1_655  S
Zr255       O773   2.405   1_655  S
Zr255       O774   2.412       .  S
Zr256       O268   2.431   1_566  S
Zr256       O787   2.435       .  S
Zr256       O781   2.426   1_556  S
Zr256       O262   2.400   1_566  S
Zr256       O765   2.403       .  S
Zr256       O775   2.396       .  S
Zr257       O281   2.438       .  S
Zr257       O771   2.433   1_544  S
Zr257       O795   2.397   1_545  S
Zr257       O261   2.390       .  S
Zr257       O766   2.383   1_544  S
Zr257       O776   2.393   1_545  S
Zr258       O284   2.435   1_655  S
Zr258       O285   2.436       .  S
Zr258       O260   2.439       .  S
Zr258       O261   2.394   1_655  S
Zr258       O262   2.379       .  S
O259       Zr769   2.433   1_556  S
O259        H296   0.990       .  S
O260        H291   0.990       .  S
O260        H305   0.990       .  S
O261       Zr767   2.405   1_445  S
O262       Zr767   2.413   1_545  S
O262        H288   0.964       .  S
O263       Zr273   2.383   1_655  S
O263       Zr768   2.397       .  S
O264       Zr273   2.375   1_554  S
O264       Zr769   2.396       .  S
O264        H289   0.965       .  S
C266        C404   1.492       .  S
C267        C477   1.493       .  S
O268        H304   0.989       .  S
O269       Zr768   2.427   1_554  S
O269        C271   1.283       .  A
O270        C271   1.291       .  A
C271        C357   1.495       .  S
O272       Zr273   2.439       .  S
O272        H301   0.990       .  S
Zr273       O276   2.437   1_455  S
Zr273       O277   2.441       .  S
Zr273       O278   2.429       .  S
O274        C279   1.287       .  A
O275       Zr768   2.435       .  S
O275        H292   0.990       .  S
O275        H307   0.990       .  S
O276        H293   0.990       .  S
O277        H297   0.990       .  S
O277        H306   0.990       .  S
O278        C279   1.284   1_456  A
O280        H299   0.990   1_655  S
O280        H303   0.989   1_655  S
O281        H295   0.990       .  S
O281        H302   0.989       .  S
O282        C286   1.290       .  A
O283       Zr769   2.395       .  S
O283        C286   1.277       .  A
O284        H294   0.990       .  S
O285        H298   0.990       .  S
C286        C364   1.483       .  S
C309        C310   1.388       .  A
C309        C314   1.413       .  A
C309        C457   1.484       .  S
C310        C311   1.392       .  A
C310        H329   1.087       .  S
C311        C312   1.412       .  A
C311        C427   1.477       .  S
C312        C313   1.422       .  A
C312        C319   1.405       .  A
C313        C314   1.424       .  A
C313        C318   1.417       .  A
C314        C315   1.404       .  A
C315        C316   1.397       .  A
C315        H325   1.083       .  S
C316        C317   1.405       .  A
C316        H326   1.083       .  S
C317        C318   1.422       .  A
C317        C324   1.411       .  A
C318        C321   1.423       .  A
C319        C320   1.397       .  A
C319        H327   1.083       .  S
C320        C321   1.405       .  A
C320        H328   1.083       .  S
C321        C322   1.413       .  A
C322        C323   1.393       .  A
C322        C367   1.480       .  S
C323        C324   1.392       .  A
C323        H330   1.087       .  S
C324        C387   1.480       .  S
C331        C332   1.393       .  A
C331        C336   1.407       .  A
C331        C417   1.474       .  S
C332        C333   1.392       .  A
C332        H351   1.087       .  S
C333        C334   1.414       .  A
C333        C444   1.484       .  S
C334        C335   1.423       .  A
C334        C341   1.405       .  A
C335        C336   1.420       .  A
C335        C340   1.415       .  A
C336        C337   1.405       .  A
C337        C338   1.394       .  A
C337        H347   1.083       .  S
C338        C339   1.403       .  A
C338        H348   1.083       .  S
C339        C340   1.422       .  A
C339        C346   1.409       .  A
C340        C343   1.421       .  A
C341        C342   1.397       .  A
C341        H349   1.083       .  S
C342        C343   1.406       .  A
C342        H350   1.083       .  S
C343        C344   1.413       .  A
C344        C345   1.392       .  A
C344        C374   1.477       .  S
C345        C346   1.389       .  A
C345        H352   1.087       .  S
C346        C354   1.479       .  S
C353        C354   1.406       .  A
C353        C358   1.409       .  A
C353       Br360   1.932       .  S
C354        C355   1.402       .  A
C355        C356   1.407       .  A
C355       Br362   1.928       .  S
C356        C357   1.419       .  A
C356       Br873   1.928       .  S
C357        C358   1.421       .  A
C358       Br359   1.932       .  S
Br361       C868   1.930       .  S
C363        C364   1.416       .  A
C363        C368   1.403       .  A
C363       Br370   1.931       .  S
C364        C365   1.413       .  A
C365        C366   1.410       .  A
C365       Br372   1.928       .  S
C366        C367   1.407       .  A
C366       Br371   1.925       .  S
C367        C368   1.405       .  A
C368       Br369   1.930       .  S
C373        C374   1.403       .  A
C373        C378   1.406       .  A
C373       Br380   1.935       .  S
C374        C375   1.406       .  A
C375        C376   1.407       .  A
C375       Br382   1.928       .  S
C376        C377   1.415       .  A
C376       Br381   1.927       .  S
C377        C378   1.424       .  A
C378       Br379   1.931       .  S
C383        C384   1.416       .  A
C383        C388   1.408       .  A
C383       Br390   1.928       .  S
C384        C385   1.417       .  A
C385        C386   1.407       .  A
C385       Br392   1.931       .  S
C386        C387   1.407       .  A
C386       Br391   1.930       .  S
C387        C388   1.403       .  A
C388       Br389   1.926       .  S
C393        C394   1.405       .  A
C393        C398   1.410       .  A
C393       Br400   1.933       .  S
C394        C395   1.402       .  A
C395        C396   1.406       .  A
C395       Br402   1.929       .  S
C396        C397   1.418       .  A
C396       Br401   1.927       .  S
C397        C398   1.423       .  A
C398       Br399   1.931       .  S
C403        C404   1.416       .  A
C403        C408   1.410       .  A
C403       Br410   1.929       .  S
C404        C405   1.421       .  A
C405        C406   1.405       .  A
C405       Br412   1.931       .  S
C406        C407   1.403       .  A
C406       Br411   1.931       .  S
C407        C408   1.406       .  A
C408       Br409   1.926       .  S
C413        C414   1.412       .  A
C413        C418   1.403       .  A
C413       Br420   1.930       .  S
C414        C415   1.415       .  A
C415        C416   1.406       .  A
C415       Br422   1.930       .  S
C416        C417   1.403       .  A
C416       Br421   1.927       .  S
C417        C418   1.406       .  A
C418       Br419   1.929       .  S
C423        C424   1.420       .  A
C423        C428   1.403       .  A
C423       Br430   1.931       .  S
C424        C425   1.418       .  A
C425        C426   1.410       .  A
C425       Br432   1.929       .  S
C426        C427   1.405       .  A
C426       Br431   1.928       .  S
C427        C428   1.404       .  A
C428       Br429   1.933       .  S
C433        C434   1.417       .  A
C433        C438   1.404       .  A
C433       Br440   1.930       .  S
C434        C435   1.413       .  A
C435        C436   1.406       .  A
C435       Br442   1.929       .  S
C436        C437   1.405       .  A
C436       Br441   1.927       .  S
C437        C438   1.407       .  A
C438       Br439   1.933       .  S
C443        C444   1.406       .  A
C443        C448   1.408       .  A
C443       Br450   1.927       .  S
C444        C445   1.407       .  A
C445        C446   1.410       .  A
C445       Br452   1.934       .  S
C446        C447   1.421       .  A
C446       Br451   1.928       .  S
C447        C448   1.416       .  A
C448       Br449   1.929       .  S
C453        C454   1.415       .  A
C453        C458   1.409       .  A
C453       Br460   1.931       .  S
C454        C455   1.418       .  A
C455        C456   1.411       .  A
C455       Br462   1.927       .  S
C456        C457   1.405       .  A
C456       Br461   1.929       .  S
C457        C458   1.409       .  A
C458       Br459   1.931       .  S
C463        C464   1.419       .  A
C463        C468   1.409       .  A
C463       Br470   1.930       .  S
C464        C465   1.418       .  A
C465        C466   1.411       .  A
C465       Br472   1.928       .  S
C466        C467   1.405       .  A
C466       Br471   1.928       .  S
C467        C468   1.407       .  A
C468       Br469   1.931       .  S
C473        C474   1.405       .  A
C473        C478   1.410       .  A
C473       Br480   1.927       .  S
C474        C475   1.406       .  A
C475        C476   1.407       .  A
C475       Br482   1.930       .  S
C476        C477   1.419       .  A
C476       Br481   1.930       .  S
C477        C478   1.417       .  A
C478       Br991   1.928       .  S
Br479       C990   1.927       .  S
C483        C484   1.405       .  A
C483        C488   1.409       .  A
C483       Br490   1.925       .  S
C484        C485   1.406       .  A
C485        C486   1.405       .  A
C485       Br492   1.933       .  S
C486        C487   1.420       .  A
C486       Br491   1.931       .  S
C487        C488   1.415       .  A
C488       Br489   1.930       .  S
C493        C494   1.408       .  A
C493        C498   1.406       .  A
C493       Br500   1.930       .  S
C494        C495   1.405       .  A
C495        C496   1.410       .  A
C495       Br502   1.927       .  S
C496        C497   1.417       .  A
C496       Br501   1.928       .  S
C497        C498   1.415       .  A
C498       Br499   1.931       .  S
C503        C504   1.417       .  A
C503        C508   1.410       .  A
C503       Br510   1.930       .  S
C504        C505   1.422       .  A
C505        C506   1.408       .  A
C505       Br512   1.933       .  S
C506        C507   1.406       .  A
C506       Br511   1.933       .  S
C507        C508   1.405       .  A
C508       Br509   1.926       .  S
C513        C514   1.392       .  A
C513        C518   1.412       .  A
C513       C1006   1.483       .  S
C514        C515   1.394       .  A
C514        H533   1.087       .  S
C515        C516   1.415       .  A
C515       C1019   1.483       .  S
C516        C517   1.423       .  A
C516        C523   1.405       .  A
C517        C518   1.423       .  A
C517        C522   1.418       .  A
C518        C519   1.405       .  A
C519        C520   1.396       .  A
C519        H529   1.083       .  S
C520        C521   1.404       .  A
C520        H530   1.083       .  S
C521        C522   1.424       .  A
C521        C528   1.413       .  A
C522        C525   1.422       .  A
C523        C524   1.398       .  A
C523        H531   1.083       .  S
C524        C525   1.405       .  A
C524        H532   1.083       .  S
C525        C526   1.413       .  A
C526        C527   1.392       .  A
C526        C996   1.479       .  S
C527        C528   1.391       .  A
C527        H534   1.087       .  S
C528        C986   1.483       .  S
Zr535       O536   2.440       .  S
Zr535       O537   2.463       .  S
Zr535       O538   2.462       .  S
Zr535       O541   2.464       .  S
Zr535       O543   2.385       .  S
Zr535       O544   2.379       .  S
Zr535       O545   2.419       .  S
Zr535       O546   2.407       .  S
O536        H592   0.990       .  S
O536        H600   0.989       .  S
O537        C557   1.287       .  A
O538        C559   1.289       .  A
O539       Zr549   2.424       .  S
O539        C558   1.281       .  A
O540       Zr548   2.434       .  S
O540        C559   1.284       .  A
O541        C558   1.291       .  A
O542       Zr550   2.415       .  S
O542        C557   1.281       .  A
O543       Zr548   2.399       .  S
O543       Zr550   2.381       .  S
O544       Zr549   2.393       .  S
O544       Zr550   2.377       .  S
O544        H579   0.965       .  S
O545       Zr548   2.402       .  S
O545       Zr565   2.391       .  S
O545        H582   0.965       .  S
O546       Zr549   2.390       .  S
O546       Zr565   2.401       .  S
Zr547       O572   2.439       .  S
Zr547       O566   2.466       .  S
Zr547       O574   2.469       .  S
Zr547       O562   2.472       .  S
Zr547       O553   2.402       .  S
Zr547       O554   2.421       .  S
Zr547       O555   2.384       .  S
Zr547       O556   2.386       .  S
Zr548       O567   2.436       .  S
Zr548       O560   2.435       .  S
Zr548       O561   2.429       .  S
Zr548       O554   2.404       .  S
Zr548       O555   2.403       .  S
Zr549       O551   2.435       .  S
Zr549       O573   2.438       .  S
Zr549       O575   2.409       .  S
Zr549       O553   2.389       .  S
Zr549       O556   2.399       .  S
Zr550       O576   2.435       .  S
Zr550       O577   2.436       .  S
Zr550       O552   2.437       .  S
Zr550       O553   2.388       .  S
Zr550       O554   2.393       .  S
O551        H588   0.990       .  S
O552        H583   0.990       .  S
O552        H597   0.990       .  S
O554        H580   0.965       .  S
O555       Zr565   2.380       .  S
O556       Zr565   2.380       .  S
O556        H581   0.965       .  S
C557        C623   1.484       .  S
C558        C959   1.500       .  S
C559        C966   1.493       .  S
O560        H596   0.990       .  S
O561        C563   1.283       .  A
O562        C563   1.291       .  A
C563        C976   1.496       .  S
O564       Zr565   2.439       .  S
O564        H593   0.990       .  S
Zr565       O568   2.439       .  S
Zr565       O569   2.438       .  S
Zr565       O570   2.423       .  S
O566        C571   1.287       .  A
O567        H584   0.990       .  S
O567        H599   0.990       .  S
O568        H585   0.990       .  S
O569        H589   0.990       .  S
O569        H598   0.990       .  S
O570        C571   1.283       .  A
C571        C637   1.488       .  S
O572        H591   0.989       .  S
O572        H595   0.990       .  S
O573        H587   0.990       .  S
O573        H594   0.989       .  S
O574        C578   1.292       .  A
O575        C578   1.279       .  A
O576        H586   0.990       .  S
O577        H590   0.990       .  S
C578       C1016   1.495       .  S
Zr601       O602   2.441       .  S
Zr601       O603   2.463       .  S
Zr601       O604   2.449       .  S
Zr601       O607   2.460       .  S
Zr601       O609   2.388       .  S
Zr601       O610   2.381       .  S
O602        H658   0.990       .  S
O602        H666   0.989       .  S
O603        C623   1.287       .  A
O604        C625   1.286       .  A
O605       Zr615   2.409       .  S
O605        C624   1.280       .  A
O606       Zr614   2.418   1_565  S
O606        C625   1.281       .  A
O607        C624   1.289       .  A
O608       Zr616   2.419       .  S
O608        C623   1.282       .  A
O609       Zr614   2.404   1_565  S
O609       Zr616   2.383       .  S
O610       Zr615   2.393       .  S
O610       Zr616   2.377       .  S
O610        H645   0.965       .  S
O611       Zr631   2.390       .  S
O611        H648   0.964       .  S
O612       Zr631   2.392       .  S
Zr613       O638   2.439       .  S
Zr613       O632   2.468       .  S
Zr613       O640   2.452       .  S
Zr613       O628   2.463       .  S
Zr613       O621   2.380       .  S
Zr613       O622   2.384       .  S
Zr614       O626   2.433   1_545  S
Zr614       O620   2.401   1_545  S
Zr615       O639   2.438       .  S
Zr615       O619   2.385       .  S
Zr616       O642   2.435       .  S
Zr616       O643   2.436       .  S
Zr616       O618   2.438       .  S
Zr616       O619   2.394       .  S
Zr616       O620   2.386       .  S
O617        H654   0.990       .  S
O618        H649   0.990       .  S
O618        H663   0.990       .  S
O620        H646   0.965       .  S
O621       Zr631   2.383       .  S
O622       Zr631   2.377       .  S
O622        H647   0.966       .  S
C624        C936   1.491       .  S
C625        C926   1.477       .  S
O626        H662   0.989       .  S
O627        C629   1.283       .  A
O628        C629   1.289       .  A
C629       C1009   1.488       .  S
O630       Zr631   2.439       .  S
O630        H659   0.990       .  S
Zr631       O634   2.437       .  S
Zr631       O635   2.439       .  S
Zr631       O636   2.420       .  S
O632        C637   1.288       .  A
O633        H650   0.990       .  S
O633        H665   0.990       .  S
O634        H651   0.990       .  S
O635        H655   0.990       .  S
O635        H664   0.990       .  S
O636        C637   1.282       .  A
O638        H657   0.989       .  S
O638        H661   0.990       .  S
O639        H653   0.990       .  S
O639        H660   0.989       .  S
O640        C644   1.289       .  A
O641        C644   1.278       .  A
O642        H652   0.990       .  S
O643        H656   0.990       .  S
C644        C946   1.481       .  S
C667        C668   1.389       .  A
C667        C672   1.410       .  A
C667        C949   1.474       .  S
C668        C669   1.389       .  A
C668        H687   1.087       .  S
C669        C670   1.414       .  A
C669        C979   1.482       .  S
C670        C671   1.425       .  A
C670        C677   1.404       .  A
C671        C672   1.421       .  A
C671        C676   1.416       .  A
C672        C673   1.405       .  A
C673        C674   1.396       .  A
C673        H683   1.083       .  S
C674        C675   1.404       .  A
C674        H684   1.083       .  S
C675        C676   1.424       .  A
C675        C682   1.412       .  A
C676        C679   1.421       .  A
C677        C678   1.397       .  A
C677        H685   1.083       .  S
C678        C679   1.405       .  A
C678        H686   1.083       .  S
C679        C680   1.411       .  A
C680        C681   1.390       .  A
C680        C906   1.478       .  S
C681        C682   1.392       .  A
C681        H688   1.087       .  S
C682        C919   1.479       .  S
Zr689       O690   2.437       .  S
Zr689       O691   2.448       .  S
Zr689       O692   2.472   1_655  S
Zr689       O695   2.461       .  S
Zr689       O697   2.383   1_656  S
Zr689       O698   2.383   1_556  S
Zr689       O699   2.413   1_655  S
Zr689       O700   2.400       .  S
O690        H746   0.990   1_655  S
O690        H754   0.988       .  S
O691        C711   1.284       .  A
O692        C713   1.292       .  A
O693       Zr703   2.399   1_556  S
O693        C712   1.277       .  A
O694       Zr702   2.416   1_556  S
O694        C713   1.280       .  A
O695        C712   1.290       .  A
O696       Zr704   2.425       .  S
O696        C711   1.283   1_454  A
O697       Zr702   2.399       .  S
O697       Zr704   2.380       .  S
O698       Zr703   2.390       .  S
O698       Zr704   2.370   1_655  S
O698        H733   0.965       .  S
O699       Zr702   2.402   1_556  S
O699       Zr719   2.392   1_455  S
O699        H736   0.965       .  S
O700       Zr703   2.385   1_556  S
O700       Zr719   2.389       .  S
Zr701       O726   2.437       .  S
Zr701       O720   2.477   1_455  S
Zr701       O728   2.477   1_455  S
Zr701       O716   2.463       .  S
Zr701       O707   2.410   1_455  S
Zr701       O708   2.420       .  S
Zr701       O709   2.384       .  S
Zr701       O710   2.380   1_455  S
Zr702       O721   2.435   1_554  S
Zr702       O714   2.435       .  S
Zr702       O715   2.421       .  S
Zr702       O708   2.397       .  S
Zr702       O709   2.397       .  S
Zr703       O705   2.435   1_554  S
Zr703       O727   2.438       .  S
Zr703       O729   2.394       .  S
Zr703       O707   2.388       .  S
Zr703       O710   2.393       .  S
Zr704       O730   2.436   1_455  S
Zr704       O731   2.436       .  S
Zr704       O706   2.437       .  S
Zr704       O707   2.400   1_455  S
Zr704       O708   2.389       .  S
O705        H742   0.990       .  S
O706        H737   0.990       .  S
O706        H751   0.990       .  S
O708        H734   0.965       .  S
O709       Zr719   2.383   1_454  S
O710       Zr719   2.381   1_554  S
O710        H735   0.965       .  S
C711        C777   1.481       .  S
C712        C999   1.487       .  S
C713        C909   1.495       .  S
O714        H750   0.990       .  S
O715        C717   1.282       .  A
O716        C717   1.291       .  A
C717        C896   1.489       .  S
O718       Zr719   2.439       .  S
O718        H747   0.990       .  S
Zr719       O722   2.437   1_655  S
Zr719       O723   2.439       .  S
Zr719       O724   2.414       .  S
O720        C725   1.291       .  A
O721        H738   0.990       .  S
O721        H753   0.990       .  S
O722        H739   0.990       .  S
O723        H743   0.990       .  S
O723        H752   0.990       .  S
O724        C725   1.281   1_556  A
C725        C791   1.488       .  S
O726        H745   0.990   1_455  S
O726        H749   0.989       .  S
O727        H741   0.990       .  S
O727        H748   0.989       .  S
O728        C732   1.293       .  A
O729        C732   1.276       .  A
O730        H740   0.990       .  S
O731        H744   0.990       .  S
C732        C889   1.492       .  S
Zr755       O756   2.439   1_655  S
Zr755       O757   2.471       .  S
Zr755       O758   2.470       .  S
Zr755       O761   2.464   1_655  S
Zr755       O763   2.381   1_556  S
Zr755       O764   2.382   1_656  S
O756        H812   0.990   1_455  S
O756        H820   0.989   1_455  S
O757        C777   1.289       .  A
O758        C779   1.291       .  A
O759       Zr769   2.405   1_556  S
O759        C778   1.278       .  A
O760       Zr768   2.421       .  S
O760        C779   1.281       .  A
O761        C778   1.291       .  A
O762       Zr770   2.403       .  S
O762        C777   1.279   1_554  A
O763       Zr768   2.400   1_554  S
O763       Zr770   2.385       .  S
O764       Zr769   2.390       .  S
O764       Zr770   2.374   1_455  S
O764        H799   0.965   1_554  S
O765       Zr785   2.401       .  S
O765        H802   0.965       .  S
O766       Zr785   2.395   1_455  S
Zr767       O792   2.439       .  S
Zr767       O786   2.461       .  S
Zr767       O794   2.465   1_655  S
Zr767       O782   2.461       .  S
Zr767       O775   2.385   1_554  S
Zr767       O776   2.382   1_655  S
Zr768       O780   2.433   1_556  S
Zr768       O774   2.398   1_556  S
Zr769       O793   2.438       .  S
Zr769       O773   2.391       .  S
Zr770       O796   2.436   1_655  S
Zr770       O797   2.436       .  S
Zr770       O772   2.438       .  S
Zr770       O773   2.393   1_655  S
Zr770       O774   2.381       .  S
O771        H808   0.990       .  S
O772        H803   0.990       .  S
O772        H817   0.990       .  S
O774        H800   0.965       .  S
O775       Zr785   2.383       .  S
O776       Zr785   2.376   1_454  S
O776        H801   0.965       .  S
C778        C916   1.490       .  S
C779        C989   1.493       .  S
O780        H816   0.990       .  S
O781        C783   1.282       .  A
O782        C783   1.290       .  A
C783        C869   1.492       .  S
O784       Zr785   2.440   1_455  S
O784        H813   0.990       .  S
Zr785       O788   2.437       .  S
Zr785       O789   2.440   1_655  S
Zr785       O790   2.429       .  S
O786        C791   1.286       .  A
O787        H804   0.990       .  S
O787        H819   0.990       .  S
O788        H805   0.990       .  S
O789        H809   0.990       .  S
O789        H818   0.990       .  S
O790        C791   1.284   1_556  A
O792        H811   0.990   1_655  S
O792        H815   0.989   1_655  S
O793        H807   0.990       .  S
O793        H814   0.989       .  S
O794        C798   1.290       .  A
O795        C798   1.278       .  A
O796        H806   0.990       .  S
O797        H810   0.990       .  S
C798        C876   1.484       .  S
C821        C822   1.388       .  A
C821        C826   1.413       .  A
C821        C969   1.483       .  S
C822        C823   1.392       .  A
C822        H841   1.087       .  S
C823        C824   1.412       .  A
C823        C939   1.478       .  S
C824        C825   1.422       .  A
C824        C831   1.405       .  A
C825        C826   1.424       .  A
C825        C830   1.417       .  A
C826        C827   1.404       .  A
C827        C828   1.397       .  A
C827        H837   1.083       .  S
C828        C829   1.405       .  A
C828        H838   1.083       .  S
C829        C830   1.422       .  A
C829        C836   1.411       .  A
C830        C833   1.424       .  A
C831        C832   1.397       .  A
C831        H839   1.083       .  S
C832        C833   1.405       .  A
C832        H840   1.083       .  S
C833        C834   1.413       .  A
C834        C835   1.393       .  A
C834        C879   1.482       .  S
C835        C836   1.392       .  A
C835        H842   1.087       .  S
C836        C899   1.480       .  S
C843        C844   1.394       .  A
C843        C848   1.407       .  A
C843        C929   1.474       .  S
C844        C845   1.392       .  A
C844        H863   1.087       .  S
C845        C846   1.414       .  A
C845        C956   1.485       .  S
C846        C847   1.423       .  A
C846        C853   1.404       .  A
C847        C848   1.419       .  A
C847        C852   1.415       .  A
C848        C849   1.405       .  A
C849        C850   1.394       .  A
C849        H859   1.083       .  S
C850        C851   1.403       .  A
C850        H860   1.083       .  S
C851        C852   1.423       .  A
C851        C858   1.410       .  A
C852        C855   1.421       .  A
C853        C854   1.396       .  A
C853        H861   1.083       .  S
C854        C855   1.405       .  A
C854        H862   1.083       .  S
C855        C856   1.412       .  A
C856        C857   1.392       .  A
C856        C886   1.476       .  S
C857        C858   1.390       .  A
C857        H864   1.087       .  S
C858        C866   1.479       .  S
C865        C866   1.407       .  A
C865        C870   1.408       .  A
C865       Br872   1.932       .  S
C866        C867   1.403       .  A
C867        C868   1.407       .  A
C867       Br874   1.928       .  S
C868        C869   1.418       .  A
C869        C870   1.419       .  A
C870       Br871   1.931       .  S
C875        C876   1.416       .  A
C875        C880   1.403       .  A
C875       Br882   1.931       .  S
C876        C877   1.414       .  A
C877        C878   1.411       .  A
C877       Br884   1.929       .  S
C878        C879   1.407       .  A
C878       Br883   1.925       .  S
C879        C880   1.405       .  A
C880       Br881   1.930       .  S
C885        C886   1.404       .  A
C885        C890   1.406       .  A
C885       Br892   1.935       .  S
C886        C887   1.405       .  A
C887        C888   1.407       .  A
C887       Br894   1.928       .  S
C888        C889   1.415       .  A
C888       Br893   1.927       .  S
C889        C890   1.423       .  A
C890       Br891   1.931       .  S
C895        C896   1.417       .  A
C895        C900   1.408       .  A
C895       Br902   1.928       .  S
C896        C897   1.417       .  A
C897        C898   1.407       .  A
C897       Br904   1.932       .  S
C898        C899   1.407       .  A
C898       Br903   1.930       .  S
C899        C900   1.403       .  A
C900       Br901   1.927       .  S
C905        C906   1.406       .  A
C905        C910   1.409       .  A
C905       Br912   1.933       .  S
C906        C907   1.403       .  A
C907        C908   1.406       .  A
C907       Br914   1.928       .  S
C908        C909   1.417       .  A
C908       Br913   1.927       .  S
C909        C910   1.423       .  A
C910       Br911   1.931       .  S
C915        C916   1.415       .  A
C915        C920   1.409       .  A
C915       Br922   1.929       .  S
C916        C917   1.421       .  A
C917        C918   1.405       .  A
C917       Br924   1.931       .  S
C918        C919   1.404       .  A
C918       Br923   1.932       .  S
C919        C920   1.406       .  A
C920       Br921   1.926       .  S
C925        C926   1.413       .  A
C925        C930   1.403       .  A
C925       Br932   1.930       .  S
C926        C927   1.415       .  A
C927        C928   1.406       .  A
C927       Br934   1.930       .  S
C928        C929   1.403       .  A
C928       Br933   1.927       .  S
C929        C930   1.406       .  A
C930       Br931   1.930       .  S
C935        C936   1.420       .  A
C935        C940   1.404       .  A
C935       Br942   1.931       .  S
C936        C937   1.418       .  A
C937        C938   1.410       .  A
C937       Br944   1.929       .  S
C938        C939   1.405       .  A
C938       Br943   1.928       .  S
C939        C940   1.404       .  A
C940       Br941   1.932       .  S
C945        C946   1.416       .  A
C945        C950   1.404       .  A
C945       Br952   1.931       .  S
C946        C947   1.413       .  A
C947        C948   1.406       .  A
C947       Br954   1.929       .  S
C948        C949   1.405       .  A
C948       Br953   1.927       .  S
C949        C950   1.407       .  A
C950       Br951   1.932       .  S
C955        C956   1.406       .  A
C955        C960   1.409       .  A
C955       Br962   1.927       .  S
C956        C957   1.407       .  A
C957        C958   1.411       .  A
C957       Br964   1.934       .  S
C958        C959   1.423       .  A
C958       Br963   1.929       .  S
C959        C960   1.416       .  A
C960       Br961   1.929       .  S
C965        C966   1.416       .  A
C965        C970   1.409       .  A
C965       Br972   1.931       .  S
C966        C967   1.418       .  A
C967        C968   1.410       .  A
C967       Br974   1.928       .  S
C968        C969   1.404       .  A
C968       Br973   1.928       .  S
C969        C970   1.409       .  A
C970       Br971   1.931       .  S
C975        C976   1.419       .  A
C975        C980   1.409       .  A
C975       Br982   1.930       .  S
C976        C977   1.418       .  A
C977        C978   1.410       .  A
C977       Br984   1.927       .  S
C978        C979   1.404       .  A
C978       Br983   1.929       .  S
C979        C980   1.407       .  A
C980       Br981   1.931       .  S
C985        C986   1.404       .  A
C985        C990   1.410       .  A
C985       Br992   1.927       .  S
C986        C987   1.405       .  A
C987        C988   1.407       .  A
C987       Br994   1.931       .  S
C988        C989   1.420       .  A
C988       Br993   1.930       .  S
C989        C990   1.417       .  A
C995        C996   1.405       .  A
C995       C1000   1.408       .  A
C995      Br1002   1.925       .  S
C996        C997   1.406       .  A
C997        C998   1.405       .  A
C997      Br1004   1.933       .  S
C998        C999   1.420       .  A
C998      Br1003   1.931       .  S
C999       C1000   1.415       .  A
C1000     Br1001   1.930       .  S
C1005      C1006   1.408       .  A
C1005      C1010   1.406       .  A
C1005     Br1012   1.930       .  S
C1006      C1007   1.406       .  A
C1007      C1008   1.410       .  A
C1007     Br1014   1.927       .  S
C1008      C1009   1.416       .  A
C1008     Br1013   1.929       .  S
C1009      C1010   1.415       .  A
C1010     Br1011   1.931       .  S
C1015      C1016   1.417       .  A
C1015      C1020   1.410       .  A
C1015     Br1022   1.930       .  S
C1016      C1017   1.422       .  A
C1017      C1018   1.408       .  A
C1017     Br1024   1.933       .  S
C1018      C1019   1.406       .  A
C1018     Br1023   1.932       .  S
C1019      C1020   1.405       .  A
C1020     Br1021   1.926       .  S
