geometry optimzed in LAMMPS
_audit_creation_date              2020-11-30 
_audit_creation_method            'lammps2cif' 
_symmetry_space_group_name_H-M    'P1' 
_symmetry_Int_Tables_number       1 
_symmetry_cell_setting            triclinic 
loop_ 
_symmetry_equiv_pos_as_xyz 
  x,y,z 
_cell_length_a                    45.8061283 
_cell_length_b                    42.3604968693014 
_cell_length_c                    72.62573937991343 
_cell_angle_alpha                 89.98980880550293 
_cell_angle_beta                  88.58575192667861 
_cell_angle_gamma                 90.08306753360962 
loop_ 
_atom_site_label 
_atom_site_type_symbol 
_atom_site_fract_x 
_atom_site_fract_y 
_atom_site_fract_z 
_atom_site_charge 
O1          O  0.23193447  0.15924013  0.05347033    -0.72200
O2          O  0.22383025  0.09294030  0.09278608    -0.73200
O3          O  0.22839624  0.16027759  0.09244450    -0.61800
O4          O  0.22777090  0.09258273  0.05335077    -0.70300
O5          O  0.27575520  0.08765463  0.05561599    -0.69800
O6          O  0.27664914  0.15803096  0.09277737    -0.61100
O7          O  0.27203892  0.09134657  0.09477720    -0.73600
O8          O  0.28015947  0.15417759  0.05358449    -0.72300
Cu9        Cu  0.22628442  0.12631535  0.07300710     1.04600
Cu10       Cu  0.27781235  0.12263083  0.07424710     1.04300
C11         C  0.25724623  0.16685491  0.04716927     0.94000
C12         C  0.24671714  0.08206537  0.10023931     0.93100
C13         C  0.25267159  0.17032085  0.09857548     0.85200
C14         C  0.25183210  0.07966096  0.04820093     0.91500
C15         C  0.24777806  0.13099947  0.78108586     0.87200
C16         C  0.24967597  0.10097909  0.79283692    -0.53000
C17         C  0.27464387  0.09841637  0.80252186     0.10100
C18         C  0.29585701  0.12627321  0.79978115     0.21100
C19         C  0.25284599  0.15822616  0.79487299    -0.53800
C20         C  0.27810643  0.15612348  0.80436765     0.10200
C21         C  0.27603706  0.13107619  0.76908972    -0.53300
C22         C  0.30130936  0.12836894  0.77878946     0.10800
H23         H  0.23238715  0.08342489  0.79371550     0.15300
H24         H  0.31579112  0.12350939  0.80793339     0.01000
H25         H  0.23853860  0.17808705  0.79713959     0.15600
H26         H  0.27604243  0.13385635  0.75424338     0.15400
O27         O  0.26079655  0.40651980  0.89936536    -0.72200
O28         O  0.25166956  0.34380323  0.94043138    -0.73200
O29         O  0.25187236  0.41073539  0.93831062    -0.61800
O30         O  0.26074545  0.33928001  0.90198329    -0.70300
O31         O  0.30883249  0.34128575  0.90479981    -0.69800
O32         O  0.29963701  0.41114105  0.94214484    -0.61100
O33         O  0.29959310  0.34396075  0.94364529    -0.73600
O34         O  0.30855895  0.40854966  0.90312145    -0.72300
Cu35       Cu  0.25464647  0.37515935  0.91986025     1.04600
Cu36       Cu  0.30583316  0.37628202  0.92354236     1.04300
C37         C  0.28587458  0.41767498  0.89471684     0.94000
C38         C  0.27426657  0.33357758  0.94843782     0.93100
C39         C  0.27425678  0.42192606  0.94627040     0.85200
C40         C  0.28622084  0.32882972  0.89780713     0.91500
C41         C  0.29049558  0.38077591  0.21235017     0.87200
C42         C  0.28833468  0.35183525  0.19967184    -0.53000
C43         C  0.26299372  0.34986207  0.19018253     0.10100
C44         C  0.24178635  0.37729567  0.19421912     0.21100
C45         C  0.28484042  0.40908715  0.19955995    -0.53800
C46         C  0.25975191  0.40710184  0.18992721     0.10200
C47         C  0.26284908  0.37955973  0.22473886    -0.53300
C48         C  0.23738429  0.37773077  0.21535266     0.10800
H49         H  0.30577140  0.33464970  0.19802600     0.15300
H50         H  0.22118073  0.37565256  0.18658951     0.01000
H51         H  0.29869445  0.42957100  0.19787857     0.15600
H52         H  0.26342125  0.37994085  0.23965114     0.15400
O53         O  0.03246957  0.40563183  0.59448201    -0.72200
O54         O  0.02910894  0.34013941  0.55428158    -0.73200
O55         O  0.03391371  0.40658311  0.55518215    -0.61800
O56         O  0.02808304  0.33891681  0.59345964    -0.70300
O57         O  0.47973719  0.34080183  0.59299102    -0.69800
O58         O  0.48576639  0.41165081  0.55576518    -0.61100
O59         O  0.48095615  0.34529110  0.55356325    -0.73600
O60         O  0.48423592  0.40821533  0.59509041    -0.72300
Cu61       Cu  0.03252564  0.37269803  0.57438009     1.04600
Cu62       Cu  0.48096240  0.37663161  0.57442236     1.04300
C63         C  0.00880118  0.41725209  0.60126337     0.94000
C64         C  0.00462308  0.33298485  0.54726634     0.93100
C65         C  0.01087678  0.41951015  0.54914815     0.85200
C66         C  0.00319863  0.32888621  0.59921566     0.91500
O67         O  0.00061746  0.15918164  0.39632383    -0.72200
O68         O  0.99192570  0.09657858  0.43765236    -0.73200
O69         O  0.99216133  0.16374883  0.43533231    -0.61800
O70         O  0.00027789  0.09250735  0.39898418    -0.70300
O71         O  0.04839196  0.09340694  0.40166876    -0.69800
O72         O  0.04008551  0.16402757  0.43855867    -0.61100
O73         O  0.03999745  0.09728916  0.44074488    -0.73600
O74         O  0.04859967  0.16037720  0.39985574    -0.72300
Cu75       Cu  0.99457510  0.12801438  0.41693136     1.04600
Cu76       Cu  0.04593143  0.12873558  0.42030368     1.04300
C77         C  0.02588439  0.16971333  0.39161793     0.94000
C78         C  0.01474235  0.08716322  0.44578401     0.93100
C79         C  0.01487368  0.17511491  0.44283447     0.85200
C80         C  0.02553130  0.08177780  0.39451329     0.91500
C81         C  0.48412079  0.38021145  0.27994115     0.87200
C82         C  0.48575448  0.35146810  0.29272258    -0.53000
C83         C  0.01119406  0.34880434  0.30204466     0.10100
C84         C  0.03344242  0.37502221  0.29721803     0.21100
C85         C  0.49128557  0.40850208  0.29251037    -0.53800
C86         C  0.01696868  0.40567548  0.30155081     0.10200
C87         C  0.01122712  0.37777361  0.26710021    -0.53300
C88         C  0.03703226  0.37506703  0.27603621     0.10800
H89         H  0.46794723  0.33470909  0.29426888     0.15300
H90         H  0.05444085  0.37313602  0.30438553     0.01000
H91         H  0.47811689  0.42943951  0.29433769     0.15600
H92         H  0.01008001  0.37858084  0.25220313     0.15400
C93         C  0.05390521  0.12711054  0.71275801     0.87200
C94         C  0.05161461  0.09751298  0.70055895    -0.53000
C95         C  0.02591589  0.09477639  0.69145464     0.12500
C96         C  0.50453019  0.12202498  0.69541978     0.21100
C97         C  0.04745033  0.15470263  0.69949676    -0.53800
C98         C  0.02188481  0.15196749  0.69032965     0.10200
C99         C  0.02664394  0.12614657  0.72554664    -0.53300
C100        C  0.50105265  0.12300524  0.71651512     0.10800
H101        H  0.06917671  0.08046412  0.69897769     0.15300
H102        H  0.48350317  0.11962204  0.68834396     0.01000
H103        H  0.06127012  0.17503241  0.69708778     0.15600
H104        H  0.02738814  0.12829268  0.74041962     0.15400
C105        C  0.05200482  0.02747753  0.35570367    -0.13700
C106        C  0.02920942  0.00536849  0.35544426     0.16700
C107        C  0.50584754  0.00812481  0.36829136     0.03000
C108        C  0.00513089  0.03310771  0.38083892    -0.12200
C109        C  0.02782808  0.05539168  0.38117297    -0.03200
C110        C  0.05166002  0.05221681  0.36856854     0.02300
C111        C  0.03526785  0.48033462  0.33918029     0.09100
N112        N  0.48230113  0.98595018  0.36847411     0.65500
H113        H  0.48682644  0.03496464  0.39050665     0.18400
N114        N  0.07518237  0.07440167  0.36826714     0.75900
H115        H  0.07015560  0.02544190  0.34592172     0.09900
C116        C  0.02955387  0.48702963  0.32067588     0.03600
C117        C  0.02561449  0.46224689  0.30829963    -0.05100
C118        C  0.02716615  0.43067503  0.31412881    -0.23500
C119        C  0.03497515  0.42407037  0.33241791     0.12800
C120        C  0.03872274  0.44897554  0.34481187    -0.12700
N121        N  0.02309706  0.01693677  0.31623196     0.64500
H122        H  0.02003035  0.46768351  0.29423328     0.12300
N123        N  0.03699144  0.39241181  0.33905006     0.61100
H124        H  0.54320171  0.44382922  0.35907080     0.08500
O125        O  0.07515332  0.09699238  0.35694222    -0.40300
O126        O  0.09807242  0.06834799  0.37690801    -0.39500
O127        O  0.48118611  0.96451549  0.38053874    -0.39500
O128        O  0.46537973  0.50073096  0.35053547    -0.37200
O129        O  0.06166428  0.37922583  0.33925060    -0.38100
O130        O  0.51643319  0.38143277  0.34900982    -0.34300
O131        O  0.04391243  0.02906705  0.30697509    -0.35700
O132        O  0.99859436  0.03051341  0.31687145    -0.40000
C133        C  0.01112272  0.21897346  0.34942655    -0.13700
C134        C  0.02895397  0.24527210  0.35247851     0.16700
C135        C  0.04768205  0.24535258  0.36759960     0.03000
C136        C  0.04773096  0.21944389  0.37959739    -0.12200
C137        C  0.02868650  0.19388691  0.37707987    -0.03200
C138        C  0.01081773  0.19339245  0.36156550     0.02300
C139        C  0.02577191  0.27306019  0.34040654     0.09100
N140        N  0.06478773  0.27254106  0.37185921     0.65500
H141        H  0.06127628  0.22027690  0.39161827     0.18400
N142        N  0.99249336  0.16693572  0.35785431     0.75900
H143        H  0.99694297  0.21860186  0.33769625     0.09900
C144        C  0.04844881  0.28362069  0.32849894     0.03600
C145        C  0.04350666  0.30914003  0.31678484    -0.05100
C146        C  0.01615872  0.32383268  0.31608151    -0.23500
C147        C  0.99371423  0.31361196  0.32847847     0.12800
C148        C  0.99876115  0.28844459  0.34041311    -0.12700
N149        N  0.07569731  0.26724305  0.32722198     0.64500
H150        H  0.06151854  0.31669115  0.30726633     0.12300
N151        N  0.46584232  0.32884490  0.32948239     0.61100
H152        H  0.98131277  0.28070534  0.34977898     0.08500
O153        O  0.00319480  0.14304457  0.34982170    -0.40300
O154        O  0.96513261  0.16963598  0.35956695    -0.39500
O155        O  0.05235747  0.29667542  0.37853687    -0.39500
O156        O  0.09219520  0.27017226  0.37257213    -0.37200
O157        O  0.46299474  0.35427957  0.33837292    -0.38100
O158        O  0.44331290  0.31370618  0.32507555    -0.34300
O159        O  0.07713041  0.24130195  0.31870847    -0.35700
O160        O  0.09898209  0.28152244  0.33102637    -0.40000
C161        C  0.03936408  0.46759619  0.50820390    -0.13700
C162        C  0.01729965  0.49022504  0.50648037     0.16700
C163        C  0.49286203  0.48916680  0.51867343     0.03000
C164        C  0.49105983  0.46594483  0.53240746    -0.12200
C165        C  0.01331800  0.44349031  0.53429380    -0.03200
C166        C  0.03754674  0.44427472  0.52183694     0.02300
C167        C  0.00904624  0.02384815  0.49207982     0.09100
N168        N  0.46997080  0.51190479  0.51750327     0.65500
H169        H  0.47229964  0.46577745  0.54179385     0.18400
N170        N  0.05960918  0.42044622  0.52208380     0.75900
H171        H  0.05769416  0.46736091  0.49848350     0.09900
C172        C  0.02833889  0.04983259  0.49197177     0.03600
C173        C  0.03012927  0.06977504  0.47662250    -0.05100
C174        C  0.01212729  0.06513365  0.46151072    -0.23500
C175        C  0.99192784  0.03995435  0.46190316     0.12800
C176        C  0.99082363  0.01934432  0.47701381    -0.12700
N177        N  0.04557110  0.05680524  0.50761280     0.64500
H178        H  0.04516934  0.08955210  0.47672974     0.12300
N179        N  0.47363142  0.03396824  0.44664181     0.61100
H180        H  0.47910799  0.49805362  0.47922189     0.08500
O181        O  0.08519285  0.42750766  0.52667188    -0.40300
O182        O  0.05468499  0.39375378  0.51508327    -0.39500
O183        O  0.44547541  0.50369906  0.51150900    -0.39500
O184        O  0.45137231  0.03037703  0.52109929    -0.37200
O185        O  0.98299985  0.01717917  0.43341190    -0.38100
O186        O  0.45229009  0.54474754  0.45299526    -0.34300
O187        O  0.07306919  0.05692558  0.50606091    -0.35700
O188        O  0.03338954  0.06762830  0.52204743    -0.40000
C189        C  0.03290771  0.23894294  0.47788576    -0.13700
C190        C  0.00576076  0.24344562  0.48685937     0.16700
C191        C  0.48115180  0.22740347  0.48024106     0.03000
C192        C  0.48433299  0.20622038  0.46545010    -0.12200
C193        C  0.01182741  0.20047275  0.45701093    -0.03200
C194        C  0.03614924  0.21788815  0.46310648     0.02300
C195        C  0.00380038  0.26528556  0.50292409     0.09100
N196        N  0.45308342  0.23113232  0.48899321     0.65500
H197        H  0.46530662  0.19329321  0.46105384     0.18400
N198        N  0.06424476  0.21497800  0.45427161     0.75900
H199        H  0.05180125  0.25203832  0.48235561     0.09900
C200        C  0.02191941  0.26110118  0.51816713     0.03600
C201        C  0.02208436  0.28358026  0.53229560    -0.05100
C202        C  0.00382936  0.31008104  0.53187291    -0.23500
C203        C  0.48527177  0.31414450  0.51678743     0.12800
C204        C  0.48544334  0.29183994  0.50246130    -0.12700
N205        N  0.03966966  0.23356016  0.51972881     0.64500
H206        H  0.03612046  0.27990295  0.54390011     0.12300
N207        N  0.46765511  0.34180414  0.51521873     0.61100
H208        H  0.47194443  0.29582438  0.49064281     0.08500
O209        O  0.08475588  0.20171452  0.46258394    -0.40300
O210        O  0.06972108  0.22988374  0.43953809    -0.39500
O211        O  0.43277239  0.24435800  0.48047159    -0.39500
O212        O  0.44747108  0.21736936  0.50408075    -0.37200
O213        O  0.47890318  0.36699686  0.50903286    -0.38100
O214        O  0.44028418  0.33979477  0.51727646    -0.34300
O215        O  0.06712862  0.23607381  0.51926231    -0.35700
O216        O  0.02800924  0.20757399  0.52420359    -0.40000
C217        C  0.00336572  0.04624009  0.64986284    -0.13700
C218        C  0.01074969  0.01560102  0.65539228     0.16700
C219        C  0.52184979  0.01109368  0.67313351     0.03000
C220        C  0.52634548  0.03707813  0.68466704    -0.12200
C221        C  0.01962720  0.06782909  0.67898535    -0.03200
C222        C  0.00754000  0.07222897  0.66144987     0.02300
C223        C  0.00934661  0.48977065  0.64342882     0.09100
N224        N  0.52841364  0.98016336  0.67969828     0.65500
H225        H  0.53498456  0.03313822  0.69823379     0.18400
N226        N  0.00182007  0.10305778  0.65445176     0.75900
H227        H  0.99564883  0.05028036  0.63607913     0.09900
C228        C  0.98339945  0.48162134  0.63455255     0.03600
C229        C  0.98367906  0.45786197  0.62107710    -0.05100
C230        C  0.00954673  0.44165519  0.61612710    -0.23500
C231        C  0.53546393  0.44959246  0.62534427     0.12800
C232        C  0.53510208  0.47343848  0.63874964    -0.12700
N233        N  0.95770804  0.99807314  0.63588283     0.64500
H234        H  0.96343365  0.45223959  0.61439887     0.12300
N235        N  0.56244713  0.43390781  0.62126972     0.61100
H236        H  0.55533385  0.47978954  0.64524269     0.08500
O237        O  0.02181201  0.11737145  0.64557496    -0.40300
O238        O  0.97571602  0.11192666  0.65284283    -0.39500
O239        O  0.55450511  0.97273810  0.68280029    -0.39500
O240        O  0.50793369  0.96234467  0.68525752    -0.37200
O241        O  0.58041892  0.44606185  0.60987767    -0.38100
O242        O  0.57062269  0.41174121  0.63153161    -0.34300
O243        O  0.94704646  0.01662626  0.62423853    -0.35700
O244        O  0.94223115  0.98917744  0.64953301    -0.40000
C245        C  0.48361909  0.21306210  0.66059795    -0.13700
C246        C  0.00616275  0.22065024  0.64786431     0.16700
C247        C  0.03260379  0.20371597  0.64839267     0.03000
C248        C  0.03669042  0.18106274  0.66203733    -0.12200
C249        C  0.01467375  0.17414193  0.67520801    -0.03200
C250        C  0.48756181  0.18981383  0.67415184     0.02300
C251        C  0.00362145  0.24888683  0.63582303     0.09100
N252        N  0.05572258  0.20956335  0.63524482     0.65500
H253        H  0.05742002  0.16878324  0.66238612     0.18400
N254        N  0.46485798  0.18464974  0.68765068     0.75900
H255        H  0.46339609  0.22629149  0.66060345     0.09900
C256        C  0.48101437  0.25251051  0.62313388     0.03600
C257        C  0.48029889  0.27944158  0.61182065    -0.05100
C258        C  0.00198699  0.30285321  0.61287056    -0.23500
C259        C  0.02369141  0.29981921  0.62621383     0.12800
C260        C  0.02425381  0.27314152  0.63750927    -0.12700
N261        N  0.45949986  0.22843122  0.62098040     0.64500
H262        H  0.46348083  0.28136213  0.60164737     0.12300
N263        N  0.04481896  0.32414908  0.62887936     0.61100
H264        H  0.04094585  0.27142120  0.64777917     0.08500
O265        O  0.44547568  0.16423147  0.68463060    -0.40300
O266        O  0.45990356  0.20557285  0.69968421    -0.39500
O267        O  0.07905457  0.22235736  0.64037356    -0.39500
O268        O  0.05504240  0.19660798  0.61962026    -0.37200
O269        O  0.03853327  0.34715574  0.63926604    -0.38100
O270        O  0.07098421  0.31988371  0.62363771    -0.34300
O271        O  0.43361920  0.23313517  0.62666502    -0.35700
O272        O  0.46510957  0.20497654  0.61079488    -0.40000
C273        C  0.10155287  0.39370866  0.24354698    -0.13700
C274        C  0.12220464  0.37181118  0.24947051     0.16700
C275        C  0.11466912  0.35077365  0.26379026     0.03000
C276        C  0.08672649  0.35192641  0.27186487    -0.12200
C277        C  0.06602924  0.37404464  0.26634658    -0.03200
C278        C  0.07369555  0.39523983  0.25195135     0.02300
C279        C  0.15194298  0.37231322  0.24113664     0.09100
N280        N  0.13558953  0.32907619  0.27069785     0.65500
H281        H  0.08113036  0.33483585  0.28300519     0.18400
N282        N  0.05422401  0.41969337  0.24651637     0.75900
H283        H  0.10743881  0.41037413  0.23269828     0.09900
C284        C  0.16037300  0.35098637  0.22714592     0.03600
C285        C  0.18827512  0.35319764  0.21891585    -0.05100
C286        C  0.20820356  0.37617512  0.22462481    -0.23500
C287        C  0.19990452  0.39709064  0.23899384     0.12800
C288        C  0.17186221  0.39505181  0.24703295    -0.12700
N289        N  0.14065245  0.32729129  0.22100078     0.64500
H290        H  0.19446058  0.33675376  0.20807713     0.12300
N291        N  0.21922524  0.42122460  0.24513923     0.61100
H292        H  0.16544915  0.41153440  0.25780207     0.08500
O293        O  0.04454648  0.41988251  0.23039529    -0.40300
O294        O  0.05072057  0.44366722  0.25664162    -0.39500
O295        O  0.15211278  0.33770667  0.28340586    -0.39500
O296        O  0.13340047  0.30009930  0.26695781    -0.37200
O297        O  0.22029366  0.44735229  0.23681783    -0.38100
O298        O  0.23047018  0.41884852  0.26076444    -0.34300
O299        O  0.12362543  0.33345527  0.20809647    -0.35700
O300        O  0.14393356  0.29903774  0.22603791    -0.40000
C301        C  0.42064505  0.35722549  0.24852447    -0.13700
C302        C  0.40034168  0.38117980  0.25211146     0.16700
C303        C  0.40706462  0.40508564  0.26471956     0.03000
C304        C  0.43409933  0.40506016  0.27326391    -0.12200
C305        C  0.45504591  0.38116626  0.26976051    -0.03200
C306        C  0.44760390  0.35680150  0.25723900     0.02300
C307        C  0.37259836  0.38144227  0.24211274     0.09100
N308        N  0.38604167  0.42874741  0.26970162     0.65500
H309        H  0.43742800  0.42345814  0.28317503     0.18400
N310        N  0.46696579  0.33107011  0.25334294     0.75900
H311        H  0.41552598  0.33866767  0.23884388     0.09900
C312        C  0.36721654  0.40455817  0.22878412     0.03600
C313        C  0.34087911  0.40437684  0.21949292    -0.05100
C314        C  0.31915133  0.38123413  0.22301574    -0.23500
C315        C  0.32526159  0.35751691  0.23622928     0.12800
C316        C  0.35161062  0.35806263  0.24568552    -0.12700
N317        N  0.38901793  0.42744398  0.22376762     0.64500
H318        H  0.33885279  0.42197020  0.20895962     0.12300
N319        N  0.30523108  0.33227793  0.24003435     0.61100
H320        H  0.35583332  0.33990788  0.25579199     0.08500
O321        O  0.48133667  0.33078896  0.23829550    -0.40300
O322        O  0.96376598  0.30562658  0.26218767    -0.39500
O323        O  0.36415485  0.42133461  0.27968622    -0.39500
O324        O  0.39209848  0.45752849  0.26720671    -0.37200
O325        O  0.30745901  0.30704788  0.23087808    -0.38100
O326        O  0.29100670  0.33203648  0.25513691    -0.34300
O327        O  0.41141353  0.41890567  0.21461431    -0.35700
O328        O  0.38339763  0.45648572  0.22536698    -0.40000
C329        C  0.18644631  0.10814116  0.74768466    -0.13700
C330        C  0.16493727  0.13068446  0.75171255     0.16700
C331        C  0.17040730  0.15388174  0.76499793     0.03000
C332        C  0.19725953  0.15455947  0.77381212    -0.12200
C333        C  0.21930013  0.13188475  0.77007091    -0.03200
C334        C  0.21324069  0.10833835  0.75670978     0.02300
C335        C  0.13699237  0.13000756  0.74178157     0.09100
N336        N  0.14818417  0.17587783  0.77051627     0.65500
H337        H  0.19946637  0.17240020  0.78418401     0.18400
N338        N  0.23356779  0.08362860  0.75253331     0.75900
H339        H  0.18232871  0.09005602  0.73751314     0.09900
C340        C  0.13095111  0.15253285  0.72822349     0.03600
C341        C  0.10442024  0.15156530  0.71907294    -0.05100
C342        C  0.08294622  0.12836851  0.72312520    -0.23500
C343        C  0.08954580  0.10547174  0.73674886     0.12800
C344        C  0.11621817  0.10663100  0.74589624    -0.12700
N345        N  0.15211868  0.17594235  0.72304452     0.64500
H346        H  0.10179863  0.16885628  0.70841935     0.12300
N347        N  0.06943232  0.08077587  0.74155202     0.61100
H348        H  0.12075758  0.08908474  0.75630098     0.08500
O349        O  0.25080486  0.08659488  0.73881963    -0.40300
O350        O  0.22860261  0.05638678  0.75890275    -0.39500
O351        O  0.12651434  0.16637922  0.78006419    -0.39500
O352        O  0.15290155  0.20513170  0.76900413    -0.37200
O353        O  0.07055097  0.05506813  0.73279576    -0.38100
O354        O  0.05610668  0.08166013  0.75696124    -0.34300
O355        O  0.17150612  0.16941376  0.71100616    -0.35700
O356        O  0.14785871  0.20437214  0.72752386    -0.40000
C357        C  0.38270491  0.14094992  0.76820107    -0.13700
C358        C  0.38618088  0.12547539  0.75123009     0.16700
C359        C  0.36187175  0.11013462  0.74369888     0.03000
C360        C  0.33469949  0.11107584  0.75299148    -0.12200
C361        C  0.33091709  0.12750535  0.76971043    -0.03200
C362        C  0.35548848  0.14248105  0.77735134     0.02300
C363        C  0.41551914  0.12501756  0.74194752     0.09100
N364        N  0.36419471  0.09430740  0.72635005     0.65500
H365        H  0.31639273  0.09894462  0.74699448     0.18400
N366        N  0.35318586  0.16085379  0.79381867     0.75900
H367        H  0.40128360  0.15232139  0.77436154     0.09900
C368        C  0.43163379  0.15314861  0.73899081     0.03600
C369        C  0.45999381  0.15177096  0.73143281    -0.05100
C370        C  0.47233506  0.12294779  0.72610531    -0.23500
C371        C  0.45660806  0.09482316  0.72913183     0.12800
C372        C  0.42846335  0.09599155  0.73713379    -0.12700
N373        N  0.41909401  0.18337065  0.74292307     0.64500
H374        H  0.47219746  0.17341950  0.72923105     0.12300
N375        N  0.46941200  0.06491865  0.72477960     0.61100
H376        H  0.41693962  0.07410478  0.73994333     0.08500
O377        O  0.36570340  0.15137629  0.80808279    -0.40300
O378        O  0.34615910  0.18953349  0.79266267    -0.39500
O379        O  0.36220879  0.06461360  0.72571264    -0.39500
O380        O  0.36335136  0.11009590  0.71164083    -0.37200
O381        O  0.48635459  0.05211573  0.73599814    -0.38100
O382        O  0.46051094  0.04932251  0.71122131    -0.34300
O383        O  0.43048694  0.20106967  0.75474409    -0.35700
O384        O  0.40006777  0.19444361  0.73244713    -0.40000
C385        C  0.28942520  0.23659412  0.82643483    -0.13700
C386        C  0.29666357  0.22801397  0.84438424     0.16700
C387        C  0.30093675  0.19584609  0.84851046     0.03000
C388        C  0.29672702  0.17286778  0.83493431    -0.12200
C389        C  0.28739282  0.18124604  0.81735176    -0.03200
C390        C  0.28495540  0.21366685  0.81290843     0.02300
C391        C  0.29627439  0.25262527  0.85893314     0.09100
N392        N  0.30891712  0.18613568  0.86654337     0.65500
H393        H  0.29980687  0.14838183  0.83843213     0.18400
N394        N  0.27812506  0.22376710  0.79471012     0.75900
H395        H  0.28622244  0.26124229  0.82304830     0.09900
C396        C  0.31478655  0.27924154  0.85793367     0.03600
C397        C  0.31151071  0.30362868  0.87088299    -0.05100
C398        C  0.28964115  0.30223568  0.88473822    -0.23500
C399        C  0.27139272  0.27541420  0.88586043     0.12800
C400        C  0.27484942  0.25094443  0.87303236    -0.12700
N401        N  0.33702159  0.28177264  0.84386707     0.64500
H402        H  0.32579361  0.32401284  0.86990507     0.12300
N403        N  0.25002458  0.27208853  0.90038380     0.61100
H404        H  0.26025063  0.23080954  0.87384507     0.08500
O405        O  0.29808184  0.22498158  0.78244531    -0.40300
O406        O  0.25421357  0.23754708  0.79198677    -0.39500
O407        O  0.29024547  0.17282602  0.87700052    -0.39500
O408        O  0.33551248  0.18554334  0.87064776    -0.37200
O409        O  0.22364944  0.27840341  0.89739692    -0.38100
O410        O  0.25639457  0.25684322  0.91465576    -0.34300
O411        O  0.33411777  0.30127362  0.83090670    -0.35700
O412        O  0.36147603  0.26888008  0.84615929    -0.40000
C413        C  0.28253882  0.01547864  0.82159706    -0.13700
C414        C  0.28310491  0.02149434  0.84057372     0.16700
C415        C  0.28268646  0.05295967  0.84684194     0.03000
C416        C  0.28080498  0.07772172  0.83417225    -0.12200
C417        C  0.27977709  0.07176033  0.81523088    -0.03200
C418        C  0.28106648  0.04030675  0.80890319     0.02300
C419        C  0.28785753  0.48959694  0.85239500     0.09100
N420        N  0.28253224  0.06002008  0.86608412     0.65500
H421        H  0.27862908  0.10154680  0.83925839     0.18400
N422        N  0.28133614  0.03325788  0.78965300     0.75900
H423        H  0.28343680  0.99136923  0.81662666     0.09900
C424        C  0.26371922  0.46916150  0.85470862     0.03600
C425        C  0.26404162  0.44545633  0.86813377    -0.05100
C426        C  0.28806754  0.44142907  0.87959138    -0.23500
C427        C  0.31278471  0.46110026  0.87674261     0.12800
C428        C  0.31242380  0.48485820  0.86326326    -0.12700
N429        N  0.23587581  0.97580826  0.84290426     0.64500
H430        H  0.24491874  0.43055811  0.86984944     0.12300
N431        N  0.33812140  0.45796156  0.88768555     0.61100
H432        H  0.33145719  0.49982407  0.86133291     0.08500
O433        O  0.26175641  0.01571352  0.78324490    -0.40300
O434        O  0.30389268  0.03925427  0.77994264    -0.39500
O435        O  0.30507016  0.07142599  0.87321013    -0.39500
O436        O  0.25881601  0.05925310  0.87528681    -0.37200
O437        O  0.35829105  0.43943984  0.88256986    -0.38100
O438        O  0.34266564  0.47759340  0.90036544    -0.34300
O439        O  0.23085756  0.45184964  0.83289625    -0.35700
O440        O  0.21559943  0.99461833  0.84741132    -0.40000
C441        C  0.27601437  0.22789888  0.13605554    -0.13700
C442        C  0.25069820  0.24617261  0.13866331     0.16700
C443        C  0.22644338  0.23992812  0.12762773     0.03000
C444        C  0.22765303  0.21535653  0.11466469    -0.12200
C445        C  0.25278293  0.19655733  0.11229200    -0.03200
C446        C  0.27728522  0.20331419  0.12313742     0.02300
C447        C  0.25069307  0.27232882  0.15243879     0.09100
N448        N  0.20011664  0.25776350  0.12975142     0.65500
H449        H  0.20863197  0.21090296  0.10647146     0.18400
N450        N  0.30349651  0.18515403  0.12155370     0.75900
H451        H  0.29515664  0.23292018  0.14402873     0.09900
C452        C  0.25895210  0.26696741  0.17077720     0.03600
C453        C  0.26233687  0.29243978  0.18284154    -0.05100
C454        C  0.25724525  0.32355991  0.17714876    -0.23500
C455        C  0.24810342  0.32894128  0.15898371     0.12800
C456        C  0.24503391  0.30342605  0.14682237    -0.12700
N457        N  0.26379438  0.23567528  0.17739112     0.64500
H458        H  0.26894429  0.28784710  0.19681699     0.12300
N459        N  0.24445188  0.36025658  0.15212685     0.61100
H460        H  0.23947580  0.30811950  0.13267062     0.08500
O461        O  0.30899927  0.16495900  0.13375070    -0.40300
O462        O  0.32357417  0.19384578  0.11046549    -0.39500
O463        O  0.19196577  0.27532453  0.11681984    -0.39500
O464        O  0.18281955  0.25208715  0.14313567    -0.37200
O465        O  0.26591418  0.37403813  0.14442246    -0.38100
O466        O  0.21904700  0.37083202  0.14988327    -0.34300
O467        O  0.28899746  0.22750031  0.18214198    -0.35700
O468        O  0.24227854  0.21790121  0.18099951    -0.40000
C469        C  0.22360741  0.47080197  0.16132843    -0.13700
C470        C  0.24706860  0.47943845  0.14951660     0.16700
C471        C  0.27331909  0.46225127  0.15007732     0.03000
C472        C  0.27637346  0.43827280  0.16297513    -0.12200
C473        C  0.25349871  0.43035821  0.17531766    -0.03200
C474        C  0.22655309  0.44616422  0.17411446     0.02300
C475        C  0.24251661  0.00776344  0.14060125     0.09100
N476        N  0.29719923  0.46905282  0.13764788     0.65500
H477        H  0.29696884  0.42574162  0.16340800     0.18400
N478        N  0.20284485  0.43917975  0.18660619     0.75900
H479        H  0.20339794  0.48404085  0.16114838     0.09900
C480        C  0.22153309  0.00951983  0.12674565     0.03600
C481        C  0.22227641  0.03477101  0.11420599    -0.05100
C482        C  0.24405504  0.05810338  0.11502806    -0.23500
C483        C  0.26396456  0.05717242  0.12951876     0.12800
C484        C  0.26274095  0.03245850  0.14224923    -0.12700
N485        N  0.20049967  0.98495788  0.12454938     0.64500
H486        H  0.20672031  0.03520915  0.10320634     0.12300
N487        N  0.28527597  0.08145070  0.13170177     0.61100
H488        H  0.27815168  0.03223301  0.15333113     0.08500
O489        O  0.18239698  0.42153234  0.18144953    -0.40300
O490        O  0.19911393  0.45590838  0.20082982    -0.39500
O491        O  0.32072040  0.47995318  0.14375259    -0.39500
O492        O  0.29641770  0.45952564  0.12120910    -0.37200
O493        O  0.27908104  0.10512129  0.14157624    -0.38100
O494        O  0.31153905  0.07629899  0.12699080    -0.34300
O495        O  0.17391123  0.99018894  0.12833248    -0.35700
O496        O  0.20936277  0.46260007  0.11339806    -0.40000
C497        C  0.24339593  0.27098299  0.98142752    -0.13700
C498        C  0.26757151  0.26510723  0.99235849     0.16700
C499        C  0.29377083  0.28160473  0.98879896     0.03000
C500        C  0.29551032  0.30351448  0.97438957    -0.12200
C501        C  0.27130552  0.30973058  0.96340418    -0.03200
C502        C  0.24494653  0.29304471  0.96707456     0.02300
C503        C  0.26548845  0.24045757  0.00678099     0.09100
N504        N  0.31851365  0.27702088  0.00009788     0.65500
H505        H  0.31585986  0.31611745  0.97203524     0.18400
N506        N  0.21974839  0.29748430  0.95614583     0.75900
H507        H  0.22328623  0.25795397  0.98387161     0.09900
C508        C  0.24488175  0.24271979  0.02143185     0.03600
C509        C  0.24204752  0.21807989  0.03416833    -0.05100
C510        C  0.25989591  0.19127073  0.03277165    -0.23500
C511        C  0.28046541  0.18889126  0.01806486     0.12800
C512        C  0.28311821  0.21347076  0.00522056    -0.12700
N513        N  0.22755434  0.27048445  0.02394731     0.64500
H514        H  0.22644410  0.22036846  0.04555486     0.12300
N515        N  0.29754826  0.16096174  0.01540825     0.61100
H516        H  0.29847156  0.21114864  0.99370730     0.08500
O517        O  0.19933269  0.31503599  0.96202203    -0.40300
O518        O  0.21525518  0.27908772  0.94285228    -0.39500
O519        O  0.34140503  0.26456110  0.99338948    -0.39500
O520        O  0.31881188  0.28907247  0.01598035    -0.37200
O521        O  0.32480063  0.16194718  0.01747047    -0.38100
O522        O  0.28624760  0.13696786  0.00813229    -0.34300
O523        O  0.20024609  0.26907429  0.02220435    -0.35700
O524        O  0.23887642  0.29499772  0.03060970    -0.40000
C525        C  0.23710610  0.03520746  0.00379922    -0.13700
C526        C  0.25627202  0.00949506  0.00518066     0.16700
C527        C  0.27324591  0.00666816  0.02105615     0.03000
C528        C  0.27149294  0.02975380  0.03485372    -0.12200
C529        C  0.25235675  0.05543348  0.03348243    -0.03200
C530        C  0.23481840  0.05791853  0.01782684     0.02300
C531        C  0.26156731  0.48924462  0.99065147     0.09100
N532        N  0.28980268  0.48096743  0.02595930     0.65500
H533        H  0.28481345  0.02726725  0.04689665     0.18400
N534        N  0.21589302  0.08432756  0.01544012     0.75900
H535        H  0.22448863  0.03823860  0.99150660     0.09900
C536        C  0.23765081  0.47375945  0.98278948     0.03600
C537        C  0.24220250  0.45269695  0.96809928    -0.05100
C538        C  0.27040403  0.44662437  0.96080953    -0.23500
C539        C  0.29427457  0.46309523  0.96831873     0.12800
C540        C  0.28966665  0.48387997  0.98315484    -0.12700
N541        N  0.20866640  0.47832837  0.99000108     0.64500
H542        H  0.22348548  0.44045344  0.96269148     0.12300
N543        N  0.32319607  0.45991399  0.96069920     0.61100
H544        H  0.30815346  0.49647363  0.98861952     0.08500
O545        O  0.22599573  0.10967420  0.00872617    -0.40300
O546        O  0.18861384  0.08067285  0.01708926    -0.39500
O547        O  0.31718008  0.48287398  0.02716568    -0.39500
O548        O  0.27690342  0.45578925  0.03068320    -0.37200
O549        O  0.33035971  0.47490440  0.94626000    -0.38100
O550        O  0.34270014  0.44679293  0.96997841    -0.34300
O551        O  0.19049207  0.49368254  0.98079285    -0.35700
O552        O  0.19885052  0.95903008  0.00360168    -0.40000
O553        O  0.23304810  0.66308456  0.05366631    -0.72200
O554        O  0.22602917  0.59686952  0.09281820    -0.73200
O555        O  0.23012902  0.66411227  0.09271912    -0.61800
O556        O  0.22944870  0.59657955  0.05347249    -0.70300
O557        O  0.27749620  0.59197977  0.05559991    -0.69800
O558        O  0.27839796  0.66236137  0.09288135    -0.61100
O559        O  0.27427037  0.59556618  0.09470587    -0.73600
O560        O  0.28131545  0.65851951  0.05357267    -0.72300
Cu561      Cu  0.22798026  0.63026439  0.07319203     1.04600
Cu562      Cu  0.27955353  0.62701432  0.07424849     1.04300
C563        C  0.25819265  0.67064871  0.04709901     0.94000
C564        C  0.24902521  0.58590506  0.10007317     0.93100
C565        C  0.25435933  0.67428493  0.09886164     0.85200
C566        C  0.25354237  0.58374504  0.04830335     0.91500
C567        C  0.25176606  0.62645738  0.77959977     0.87200
C568        C  0.25446776  0.59552097  0.79041008    -0.53000
C569        C  0.27916747  0.59311764  0.80047255     0.10100
C570        C  0.29921309  0.62231653  0.79894009     0.21100
C571        C  0.25522795  0.65274591  0.79408246    -0.53800
C572        C  0.27991160  0.65081835  0.80403918     0.10200
C573        C  0.28048697  0.62900308  0.76810647    -0.53300
C574        C  0.30558363  0.62646421  0.77809318     0.10800
H575        H  0.23763174  0.57744503  0.79054371     0.15300
H576        H  0.31863668  0.61995426  0.80751084     0.01000
H577        H  0.24067693  0.67264254  0.79588919     0.15600
H578        H  0.28085746  0.63338731  0.75339555     0.15400
O579        O  0.25686968  0.90867904  0.89825630    -0.72200
O580        O  0.24830364  0.84209714  0.93711804    -0.73200
O581        O  0.24880381  0.90914580  0.93711043    -0.61800
O582        O  0.25636905  0.84170293  0.89834213    -0.70300
O583        O  0.30433755  0.84163285  0.90154494    -0.69800
O584        O  0.29674433  0.90960280  0.94020331    -0.61100
O585        O  0.29623769  0.84246463  0.94029026    -0.73600
O586        O  0.30487667  0.90915361  0.90127784    -0.72300
Cu587      Cu  0.25095552  0.87546407  0.91756986     1.04600
Cu588      Cu  0.30223299  0.87571708  0.92091366     1.04300
C589        C  0.28201266  0.91963678  0.89364158     0.94000
C590        C  0.27103299  0.83159935  0.94487991     0.93100
C591        C  0.27146068  0.92006041  0.94487595     0.85200
C592        C  0.28153804  0.83064880  0.89397122     0.91500
C593        C  0.28569695  0.88034060  0.21676692     0.87200
C594        C  0.28435049  0.85211104  0.20355230    -0.53000
C595        C  0.25965223  0.85048189  0.19340442     0.10100
C596        C  0.23820707  0.87781810  0.19737524     0.21100
C597        C  0.28083273  0.90933222  0.20434629    -0.53800
C598        C  0.25637555  0.90788737  0.19403924     0.10200
C599        C  0.25730714  0.87855115  0.22844763    -0.53300
C600        C  0.23244511  0.87723300  0.21839972     0.10800
H601        H  0.30196277  0.83509134  0.20208361     0.15300
H602        H  0.21806537  0.87664815  0.18927414     0.01000
H603        H  0.29474964  0.92991043  0.20349979     0.15600
H604        H  0.25695952  0.87818991  0.24337519     0.15400
O605        O  0.03583201  0.90942841  0.59124783    -0.72200
O606        O  0.03544540  0.84450558  0.55102691    -0.73200
O607        O  0.03646163  0.91180003  0.55206199    -0.61800
O608        O  0.03436614  0.84266693  0.59012993    -0.70300
O609        O  0.48599689  0.84243147  0.58982555    -0.69800
O610        O  0.48816711  0.91297459  0.55293554    -0.61100
O611        O  0.48707176  0.84617481  0.55055424    -0.73600
O612        O  0.48751070  0.90958039  0.59200737    -0.72300
Cu613      Cu  0.03720036  0.87707010  0.57107786     1.04600
Cu614      Cu  0.48551167  0.87783362  0.57134155     1.04300
C615        C  0.01175879  0.91962655  0.59818008     0.94000
C616        C  0.01135592  0.83511129  0.54439443     0.93100
C617        C  0.01249414  0.92351521  0.54653961     0.85200
C618        C  0.00987528  0.83161064  0.59601905     0.91500
O619        O  0.00769049  0.65491822  0.39889993    -0.72200
O620        O  0.00228176  0.58939644  0.43859844    -0.73200
O621        O  0.00185857  0.65649581  0.43798478    -0.61800
O622        O  0.00818983  0.58847935  0.39979877    -0.70300
O623        O  0.05643405  0.58943843  0.40133756    -0.69800
O624        O  0.04995908  0.65686499  0.44020797    -0.61100
O625        O  0.05048525  0.58972638  0.44053595    -0.73600
O626        O  0.05589020  0.65649860  0.40122340    -0.72300
Cu627      Cu  0.00336116  0.62231539  0.41875097     1.04600
Cu628      Cu  0.05489398  0.62312059  0.42090214     1.04300
C629        C  0.03252150  0.66601561  0.39376133     0.94000
C630        C  0.02552575  0.57904104  0.44583055     0.93100
C631        C  0.02491273  0.66754516  0.44521050     0.85200
C632        C  0.03320805  0.57831530  0.39439541     0.91500
C633        C  0.47949045  0.87641878  0.28398494     0.87200
C634        C  0.48246631  0.84801289  0.29687682    -0.53000
C635        C  0.00836449  0.84630024  0.30575611     0.10100
C636        C  0.02976389  0.87301809  0.30027627     0.21100
C637        C  0.48669607  0.90531888  0.29608180    -0.53800
C638        C  0.01278502  0.90337049  0.30468236     0.10200
C639        C  0.00597747  0.87441425  0.27059767    -0.53300
C640        C  0.03226002  0.87242765  0.27902291     0.10800
H641        H  0.46522353  0.83066935  0.29866791     0.15300
H642        H  0.05118201  0.87198346  0.30703155     0.01000
H643        H  0.47325451  0.92615362  0.29766856     0.15600
H644        H  0.00413731  0.87477896  0.25574144     0.15400
C645        C  0.05843200  0.63057522  0.71069732     0.87200
C646        C  0.05481417  0.60053341  0.69905214    -0.53000
C647        C  0.02899111  0.59849604  0.69006016     0.12500
C648        C  0.50877007  0.62698845  0.69352749     0.21100
C649        C  0.05312845  0.65777146  0.69697385    -0.53800
C650        C  0.02732369  0.65587022  0.68802262     0.10200
C651        C  0.03115673  0.63162043  0.72354956    -0.53300
C652        C  0.50535856  0.62918463  0.71460473     0.10800
H653        H  0.07160165  0.58253156  0.69780796     0.15300
H654        H  0.48763594  0.62540193  0.68644589     0.01000
H655        H  0.06772799  0.67738346  0.69428326     0.15600
H656        H  0.03207837  0.63402379  0.73839959     0.15400
C657        C  0.05987155  0.52419003  0.35552179    -0.13700
C658        C  0.03501091  0.50554407  0.35312334     0.16700
C659        C  0.50990411  0.51073829  0.36422089     0.03000
C660        C  0.00992817  0.53441088  0.37756435    -0.12200
C661        C  0.03475814  0.55327238  0.38016506    -0.03200
C662        C  0.06001474  0.54791693  0.36897862     0.02300
C663        C  0.02976264  0.97943951  0.34178189     0.09100
N664        N  0.48415281  0.49219936  0.36193910     0.65500
H665        H  0.49032169  0.53794915  0.38598175     0.18400
N666        N  0.08567390  0.56676622  0.37075260     0.75900
H667        H  0.07921230  0.52026246  0.34693457     0.09900
C668        C  0.02565171  0.98539436  0.32295719     0.03600
C669        C  0.02207588  0.96013159  0.31080303    -0.05100
C670        C  0.02280399  0.92878805  0.31707879    -0.23500
C671        C  0.02919328  0.92284045  0.33567174     0.12800
C672        C  0.03235138  0.94818165  0.34786751    -0.12700
N673        N  0.02585892  0.51880226  0.31457082     0.64500
H674        H  0.01741406  0.96502987  0.29652357     0.12300
N675        N  0.03041202  0.89139861  0.34273047     0.61100
H676        H  0.53601616  0.94346907  0.36229747     0.08500
O677        O  0.08964877  0.59032656  0.36035283    -0.40300
O678        O  0.10649363  0.55666869  0.38015684    -0.39500
O679        O  0.47822799  0.47012305  0.37308664    -0.39500
O680        O  0.46061938  0.99058459  0.35844424    -0.37200
O681        O  0.05455879  0.87709498  0.34251555    -0.38100
O682        O  0.51016131  0.88166987  0.35328292    -0.34300
O683        O  0.04603884  0.53214301  0.30533360    -0.35700
O684        O  0.00098515  0.53150356  0.31576170    -0.40000
C685        C  0.01423877  0.71619090  0.35255572    -0.13700
C686        C  0.03153699  0.74294993  0.35550083     0.16700
C687        C  0.05099381  0.74319062  0.37027026     0.03000
C688        C  0.05248690  0.71682473  0.38189730    -0.12200
C689        C  0.03395480  0.69080061  0.37951040    -0.03200
C690        C  0.01513818  0.69032807  0.36444626     0.02300
C691        C  0.02700664  0.77090417  0.34370426     0.09100
N692        N  0.06728470  0.77091911  0.37465435     0.65500
H693        H  0.06664111  0.71766137  0.39363110     0.18400
N694        N  0.99684404  0.66371714  0.36102013     0.75900
H695        H  0.99941461  0.71570252  0.34114925     0.09900
C696        C  0.04918644  0.78337971  0.33206775     0.03600
C697        C  0.04298595  0.80888854  0.32051712    -0.05100
C698        C  0.01469900  0.82157864  0.31976116    -0.23500
C699        C  0.99280827  0.80959051  0.33200756     0.12800
C700        C  0.99918519  0.78450072  0.34371737    -0.12700
N701        N  0.07739926  0.76900934  0.33080911     0.64500
H702        H  0.06019560  0.81772967  0.31155498     0.12300
N703        N  0.46417150  0.82300880  0.33319611     0.61100
H704        H  0.98215892  0.77542480  0.35291608     0.08500
O705        O  0.00691197  0.64068316  0.35187605    -0.40300
O706        O  0.96968504  0.66569788  0.36413329    -0.39500
O707        O  0.05397122  0.79520835  0.38038250    -0.39500
O708        O  0.09460818  0.76921217  0.37625666    -0.37200
O709        O  0.46006913  0.84839153  0.34195419    -0.38100
O710        O  0.44244461  0.80635547  0.32902134    -0.34300
O711        O  0.08040392  0.74302482  0.32248324    -0.35700
O712        O  0.09976916  0.78495783  0.33455992    -0.40000
C713        C  0.03650212  0.98472284  0.51052969    -0.13700
C714        C  0.00987751  0.99952060  0.50682300     0.16700
C715        C  0.48437735  0.98932726  0.51625784     0.03000
C716        C  0.48580728  0.96459429  0.52899170    -0.12200
C717        C  0.01241345  0.94958538  0.53276613    -0.03200
C718        C  0.03804230  0.96008296  0.52334295     0.02300
C719        C  0.01938549  0.51341847  0.49115783     0.09100
N720        N  0.45692076  0.00430651  0.51338636     0.65500
H721        H  0.46584136  0.95736509  0.53611639     0.18400
N722        N  0.06568140  0.94546454  0.52611632     0.75900
H723        H  0.05620008  0.99177267  0.50303618     0.09900
C724        C  0.04389862  0.53333243  0.48881514     0.03600
C725        C  0.04581623  0.55390686  0.47373840    -0.05100
C726        C  0.02354569  0.55525346  0.46080886    -0.23500
C727        C  0.99934570  0.53469733  0.46291782     0.12800
C728        C  0.99746694  0.51413312  0.47801175    -0.12700
N729        N  0.06662359  0.53359343  0.50194736     0.64500
H730        H  0.06451343  0.56952494  0.47244501     0.12300
N731        N  0.47720186  0.53329502  0.44941950     0.61100
H732        H  0.47637519  0.99915524  0.47667773     0.08500
O733        O  0.08464199  0.95952450  0.53541068    -0.40300
O734        O  0.07295689  0.92166245  0.51662822    -0.39500
O735        O  0.43660691  0.98909781  0.50598965    -0.39500
O736        O  0.47255995  0.53829603  0.52534915    -0.37200
O737        O  0.98095303  0.51606436  0.43537482    -0.38100
O738        O  0.44684158  0.04077271  0.44781617    -0.34300
O739        O  0.09133750  0.52228906  0.49765094    -0.35700
O740        O  0.06355243  0.54966473  0.51648877    -0.40000
C741        C  0.04344214  0.73195854  0.47984054    -0.13700
C742        C  0.01610893  0.73760956  0.48836163     0.16700
C743        C  0.49156517  0.72105491  0.48206494     0.03000
C744        C  0.49483665  0.69885694  0.46784143    -0.12200
C745        C  0.02234876  0.69247682  0.45963318    -0.03200
C746        C  0.04680660  0.70968500  0.46569754     0.02300
C747        C  0.01370298  0.76169766  0.50328212     0.09100
N748        N  0.46329188  0.72572747  0.49036871     0.65500
H749        H  0.47571002  0.68603207  0.46351172     0.18400
N750        N  0.07513630  0.70552006  0.45737940     0.75900
H751        H  0.06235261  0.74530992  0.48401795     0.09900
C752        C  0.03227486  0.76086236  0.51850814     0.03600
C753        C  0.03146126  0.78530436  0.53147678    -0.05100
C754        C  0.01186379  0.81050841  0.52992554    -0.23500
C755        C  0.49303234  0.81131327  0.51484687     0.12800
C756        C  0.49421104  0.78710779  0.50164449    -0.12700
N757        N  0.05149073  0.73482578  0.52129274     0.64500
H758        H  0.04575442  0.78412498  0.54313249     0.12300
N759        N  0.47394360  0.83747536  0.51213726     0.61100
H760        H  0.48048468  0.78871757  0.48974911     0.08500
O761        O  0.09435581  0.69031080  0.46580037    -0.40300
O762        O  0.08229999  0.72117617  0.44318672    -0.39500
O763        O  0.44357511  0.73897302  0.48132446    -0.39500
O764        O  0.45664473  0.71188355  0.50527643    -0.37200
O765        O  0.48385070  0.86250806  0.50490778    -0.38100
O766        O  0.44670311  0.83381024  0.51409046    -0.34300
O767        O  0.07876638  0.73902233  0.52033774    -0.35700
O768        O  0.04140499  0.70928357  0.52775542    -0.40000
C769        C  0.00469103  0.54748578  0.64983789    -0.13700
C770        C  0.01079631  0.51703690  0.65632493     0.16700
C771        C  0.52141508  0.51356695  0.67425168     0.03000
C772        C  0.52672714  0.54028412  0.68505192    -0.12200
C773        C  0.02149630  0.57082513  0.67839546    -0.03200
C774        C  0.00996981  0.57428189  0.66064383     0.02300
C775        C  0.01001363  0.98947586  0.64169798     0.09100
N776        N  0.52673269  0.48296832  0.68171848     0.65500
H777        H  0.53499405  0.53710802  0.69878110     0.18400
N778        N  0.00628320  0.60476417  0.65262723     0.75900
H779        H  0.99724880  0.55060093  0.63590633     0.09900
C780        C  0.98473768  0.98248788  0.63176617     0.03600
C781        C  0.98579216  0.95967791  0.61777835    -0.05100
C782        C  0.01176767  0.94341144  0.61330003    -0.23500
C783        C  0.53702716  0.95035434  0.62340917     0.12800
C784        C  0.53588242  0.97318069  0.63736127    -0.12700
N785        N  0.95648067  0.49695218  0.63929836     0.64500
H786        H  0.96607473  0.95481927  0.61033544     0.12300
N787        N  0.56409211  0.93449863  0.61981324     0.61100
H788        H  0.55567949  0.97878280  0.64455087     0.08500
O789        O  0.02747602  0.61722622  0.64389442    -0.40300
O790        O  0.98086208  0.61531435  0.65041101    -0.39500
O791        O  0.55261546  0.47404560  0.68417497    -0.39500
O792        O  0.50579025  0.46738499  0.68876823    -0.37200
O793        O  0.58229547  0.94619684  0.60840102    -0.38100
O794        O  0.57228326  0.91329117  0.63072636    -0.34300
O795        O  0.94453310  0.51471836  0.62775640    -0.35700
O796        O  0.94248983  0.48885386  0.65372454    -0.40000
C797        C  0.49056053  0.72016726  0.66007205    -0.13700
C798        C  0.01168122  0.72509760  0.64601073     0.16700
C799        C  0.03665127  0.70569685  0.64525031     0.03000
C800        C  0.04083365  0.68298983  0.65885996    -0.12200
C801        C  0.02017286  0.67845310  0.67317869    -0.03200
C802        C  0.49457852  0.69692533  0.67360268     0.02300
C803        C  0.00969864  0.75298675  0.63369950     0.09100
N804        N  0.05815513  0.70909015  0.63078214     0.65500
H805        H  0.06051265  0.66879837  0.65828812     0.18400
N806        N  0.47402234  0.69465145  0.68864691     0.75900
H807        H  0.47163058  0.73543040  0.66109973     0.09900
C808        C  0.48606103  0.75777766  0.62195766     0.03600
C809        C  0.48598296  0.78401968  0.61013330    -0.05100
C810        C  0.00921083  0.80576485  0.60981949    -0.23500
C811        C  0.03201976  0.80176970  0.62232041     0.12800
C812        C  0.03210292  0.77556862  0.63401679    -0.12700
N813        N  0.46259789  0.73557423  0.62137564     0.64500
H814        H  0.46814298  0.78676687  0.60074291     0.12300
N815        N  0.05449453  0.82493446  0.62398812     0.61100
H816        H  0.04972567  0.77297832  0.64358870     0.08500
O817        O  0.45120075  0.67831796  0.68691927    -0.40300
O818        O  0.47535836  0.71424567  0.70168276    -0.39500
O819        O  0.08332580  0.71916173  0.63436424    -0.39500
O820        O  0.05338038  0.69774266  0.61507820    -0.37200
O821        O  0.04977897  0.84906088  0.63379291    -0.38100
O822        O  0.08023333  0.81861296  0.61862078    -0.34300
O823        O  0.43769583  0.74310513  0.62775021    -0.35700
O824        O  0.46551740  0.71069250  0.61196731    -0.40000
C825        C  0.09540727  0.89103570  0.24553177    -0.13700
C826        C  0.11597620  0.86843936  0.25068687     0.16700
C827        C  0.10857295  0.84653802  0.26458618     0.03000
C828        C  0.08099025  0.84779077  0.27328723    -0.12200
C829        C  0.06063819  0.87099007  0.26865611    -0.03200
C830        C  0.06791735  0.89259404  0.25442483     0.02300
C831        C  0.14582683  0.86981328  0.24252396     0.09100
N832        N  0.12930289  0.82378565  0.27054909     0.65500
H833        H  0.07558189  0.83058102  0.28375367     0.18400
N834        N  0.04841527  0.91740587  0.24961685     0.75900
H835        H  0.10112938  0.90824396  0.23499601     0.09900
C836        C  0.15455896  0.85035570  0.22768838     0.03600
C837        C  0.18278639  0.85327604  0.21996812    -0.05100
C838        C  0.20267291  0.87525830  0.22691939    -0.23500
C839        C  0.19382205  0.89467737  0.24187925     0.12800
C840        C  0.16558435  0.89173572  0.24951592    -0.12700
N841        N  0.13487093  0.82786742  0.22018300     0.64500
H842        H  0.18928111  0.83804960  0.20860105     0.12300
N843        N  0.21270929  0.91840578  0.24898334     0.61100
H844        H  0.15885968  0.90698802  0.26082516     0.08500
O845        O  0.03652429  0.91705265  0.23412832    -0.40300
O846        O  0.04718941  0.94210439  0.25931368    -0.39500
O847        O  0.14642830  0.83085208  0.28325719    -0.39500
O848        O  0.12672156  0.79531255  0.26576019    -0.37200
O849        O  0.21473801  0.94476368  0.24096636    -0.38100
O850        O  0.22243252  0.91546629  0.26499733    -0.34300
O851        O  0.12046541  0.83510575  0.20621858    -0.35700
O852        O  0.13623562  0.79935517  0.22510530    -0.40000
C853        C  0.41564158  0.85415691  0.25255443    -0.13700
C854        C  0.39450603  0.87653027  0.25758609     0.16700
C855        C  0.40039178  0.89820357  0.27162469     0.03000
C856        C  0.42760687  0.89806991  0.27994122    -0.12200
C857        C  0.44972803  0.87646321  0.27458423    -0.03200
C858        C  0.44278786  0.85347372  0.26108558     0.02300
C859        C  0.36684623  0.87788680  0.24753237     0.09100
N860        N  0.37844326  0.91974741  0.27810581     0.65500
H861        H  0.43032676  0.91435474  0.29114536     0.18400
N862        N  0.46283103  0.82894178  0.25597401     0.75900
H863        H  0.41099814  0.83702754  0.24193060     0.09900
C864        C  0.36239965  0.90141773  0.23432097     0.03600
C865        C  0.33630463  0.90234140  0.22477663    -0.05100
C866        C  0.31380910  0.87995463  0.22800852    -0.23500
C867        C  0.31892718  0.85580481  0.24116607     0.12800
C868        C  0.34509092  0.85524765  0.25085204    -0.12700
N869        N  0.38494578  0.92365002  0.22971763     0.64500
H870        H  0.33503228  0.92010581  0.21426471     0.12300
N871        N  0.29810928  0.83118057  0.24464060     0.61100
H872        H  0.34860669  0.83675576  0.26086859     0.08500
O873        O  0.47416540  0.82880640  0.23995854    -0.40300
O874        O  0.96342489  0.80399387  0.26543984    -0.39500
O875        O  0.35899111  0.91026773  0.28941334    -0.39500
O876        O  0.38175129  0.94898099  0.27544068    -0.37200
O877        O  0.29926720  0.80642125  0.23499599    -0.38100
O878        O  0.28399737  0.83073727  0.25978326    -0.34300
O879        O  0.40520258  0.91582641  0.21855157    -0.35700
O880        O  0.38170436  0.95232827  0.23397419    -0.40000
C881        C  0.19330700  0.61116410  0.74269441    -0.13700
C882        C  0.16987767  0.62955997  0.74923982     0.16700
C883        C  0.17285566  0.64661241  0.76561808     0.03000
C884        C  0.19896523  0.64525805  0.77518774    -0.12200
C885        C  0.22332270  0.62769424  0.76856576    -0.03200
C886        C  0.21963540  0.60963208  0.75226625     0.02300
C887        C  0.14194319  0.62993754  0.73930605     0.09100
N888        N  0.14921535  0.66512638  0.77290725     0.65500
H889        H  0.19912379  0.65734667  0.78823032     0.18400
N890        N  0.24195609  0.58880534  0.74547949     0.75900
H891        H  0.19090730  0.59733175  0.73026975     0.09900
C892        C  0.13708516  0.65182951  0.72523005     0.03600
C893        C  0.11043223  0.65199481  0.71615581    -0.05100
C894        C  0.08763316  0.63068189  0.72092769    -0.23500
C895        C  0.09306380  0.60835641  0.73509023     0.12800
C896        C  0.11983316  0.60844013  0.74414951    -0.12700
N897        N  0.15918478  0.67412899  0.71995044     0.64500
H898        H  0.10855572  0.66876735  0.70513858     0.12300
N899        N  0.07166485  0.58531086  0.74052126     0.61100
H900        H  0.12346081  0.59141391  0.75499440     0.08500
O901        O  0.25446277  0.59448140  0.73015446    -0.40300
O902        O  0.24422891  0.56168446  0.75247154    -0.39500
O903        O  0.13269740  0.65386772  0.78542737    -0.39500
O904        O  0.14795444  0.69416854  0.76915774    -0.37200
O905        O  0.07068380  0.55937175  0.73202233    -0.38100
O906        O  0.05901877  0.58764192  0.75609672    -0.34300
O907        O  0.17521165  0.66895393  0.70590183    -0.35700
O908        O  0.15959404  0.70094747  0.72749468    -0.40000
C909        C  0.38734422  0.64161841  0.76812543    -0.13700
C910        C  0.39067792  0.62959542  0.75020511     0.16700
C911        C  0.36631739  0.61554840  0.74195193     0.03000
C912        C  0.33935313  0.61438137  0.75145456    -0.12200
C913        C  0.33555159  0.62734928  0.76920179    -0.03200
C914        C  0.36032431  0.64072563  0.77766358     0.02300
C915        C  0.42009603  0.63005496  0.74087980     0.09100
N916        N  0.36839398  0.60286391  0.72373080     0.65500
H917        H  0.32120539  0.60312718  0.74476702     0.18400
N918        N  0.35889441  0.65384290  0.79578860     0.75900
H919        H  0.40603843  0.65151050  0.77494272     0.09900
C920        C  0.43718601  0.65788231  0.73975892     0.03600
C921        C  0.46545127  0.65684922  0.73189352    -0.05100
C922        C  0.47663500  0.62884074  0.72434102    -0.23500
C923        C  0.45976226  0.60111633  0.72540550     0.12800
C924        C  0.43196650  0.60178697  0.73387676    -0.12700
N925        N  0.42565266  0.68762564  0.74571147     0.64500
H926        H  0.47837195  0.67825768  0.73111858     0.12300
N927        N  0.47098742  0.57188356  0.71846201     0.61100
H928        H  0.41980793  0.57993735  0.73524294     0.08500
O929        O  0.36989002  0.63852186  0.80880910    -0.40300
O930        O  0.35565104  0.68323138  0.79759387    -0.39500
O931        O  0.36572834  0.57351337  0.72128870    -0.39500
O932        O  0.36805453  0.62122288  0.71005772    -0.37200
O933        O  0.48854421  0.55615381  0.72793066    -0.38100
O934        O  0.45996154  0.55952943  0.70443284    -0.34300
O935        O  0.43737843  0.70217068  0.75877418    -0.35700
O936        O  0.40759433  0.70183785  0.73582900    -0.40000
C937        C  0.29357468  0.73190882  0.82419037    -0.13700
C938        C  0.29200811  0.72544426  0.84312263     0.16700
C939        C  0.28943345  0.69382741  0.84909017     0.03000
C940        C  0.28776347  0.66946439  0.83606555    -0.12200
C941        C  0.28773682  0.67610164  0.81716298    -0.03200
C942        C  0.29112717  0.70769157  0.81120986     0.02300
C943        C  0.29005344  0.75230047  0.85620466     0.09100
N944        N  0.28552904  0.68635726  0.86820369     0.65500
H945        H  0.28389569  0.64566406  0.84084222     0.18400
N946        N  0.29052518  0.71578050  0.79208201     0.75900
H947        H  0.29538057  0.75612738  0.81947168     0.09900
C948        C  0.31167505  0.75831665  0.86922290     0.03600
C949        C  0.30859376  0.78406299  0.88126666    -0.05100
C950        C  0.28433362  0.80432263  0.88050918    -0.23500
C951        C  0.26283258  0.79827083  0.86731737     0.12800
C952        C  0.26583353  0.77240604  0.85542430    -0.12700
N953        N  0.33732953  0.73922278  0.86995148     0.64500
H954        H  0.32535345  0.78821853  0.89125907     0.12300
N955        N  0.23833999  0.81874228  0.86532619     0.61100
H956        H  0.24917767  0.76808563  0.84537495     0.08500
O957        O  0.31410684  0.72210682  0.78352612    -0.40300
O958        O  0.26672683  0.72422619  0.78523216    -0.39500
O959        O  0.26205963  0.69394808  0.87652028    -0.39500
O960        O  0.30265543  0.66718992  0.87568418    -0.37200
O961        O  0.24119977  0.84375507  0.85601149    -0.38100
O962        O  0.21310521  0.80923204  0.86998708    -0.34300
O963        O  0.35703126  0.74220801  0.85761977    -0.35700
O964        O  0.34278481  0.72427034  0.88449523    -0.40000
C965        C  0.28182442  0.50972667  0.82023520    -0.13700
C966        C  0.28761500  0.51595859  0.83879353     0.16700
C967        C  0.29328605  0.54735196  0.84414129     0.03000
C968        C  0.29224232  0.57175690  0.83116166    -0.12200
C969        C  0.28472433  0.56584946  0.81289174    -0.03200
C970        C  0.28038963  0.53427896  0.80729879     0.02300
C971        C  0.28352651  0.99469984  0.85366495     0.09100
N972        N  0.29827014  0.55512137  0.86295871     0.65500
H973        H  0.29595431  0.59563691  0.83568018     0.18400
N974        N  0.27582962  0.52666086  0.78840734     0.75900
H975        H  0.27864700  0.48561273  0.81572662     0.09900
C976        C  0.26050793  0.97265920  0.85445499     0.03600
C977        C  0.26094991  0.94801403  0.86721997    -0.05100
C978        C  0.28408681  0.94468997  0.87941029    -0.23500
C979        C  0.30766417  0.96626525  0.87821337     0.12800
C980        C  0.30711002  0.99106846  0.86543553    -0.12700
N981        N  0.23809756  0.47306411  0.84410197     0.64500
H982        H  0.24272006  0.93167491  0.86777704     0.12300
N983        N  0.33173819  0.96415578  0.89029011     0.61100
H984        H  0.32511839  0.00768247  0.86475459     0.08500
O985        O  0.25269103  0.51277159  0.78389387    -0.40300
O986        O  0.29683964  0.52879062  0.77689903    -0.39500
O987        O  0.32275602  0.56587944  0.86751670    -0.39500
O988        O  0.27705546  0.55583055  0.87436982    -0.37200
O989        O  0.35436493  0.94924326  0.88521474    -0.38100
O990        O  0.33261447  0.98198969  0.90417511    -0.34300
O991        O  0.23210951  0.95624894  0.83007534    -0.35700
O992        O  0.22050255  0.49512651  0.84794189    -0.40000
C993        C  0.27750172  0.73185111  0.13651459    -0.13700
C994        C  0.25149023  0.74857615  0.14002779     0.16700
C995        C  0.22690435  0.74142358  0.12946395     0.03000
C996        C  0.22845745  0.71745853  0.11613854    -0.12200
C997        C  0.25425925  0.70011537  0.11288508    -0.03200
C998        C  0.27911328  0.70784014  0.12321124     0.02300
C999        C  0.25089974  0.77407558  0.15425982     0.09100
N1000       N  0.19991272  0.75774559  0.13239908     0.65500
H1001       H  0.20913327  0.71230977  0.10836670     0.18400
N1002       N  0.30608623  0.69131627  0.12065034     0.75900
H1003       H  0.29688929  0.73762913  0.14407605     0.09900
C1004       C  0.26044647  0.76849098  0.17230321     0.03600
C1005       C  0.26241324  0.79350228  0.18483192    -0.05100
C1006       C  0.25490876  0.82447128  0.17990423    -0.23500
C1007       C  0.24449595  0.82996267  0.16202744     0.12800
C1008       C  0.24271264  0.80489459  0.14942518    -0.12700
N1009       N  0.26802539  0.73742791  0.17818600     0.64500
H1010       H  0.26988084  0.78860638  0.19858348     0.12300
N1011       N  0.23791658  0.86112273  0.15587951     0.61100
H1012       H  0.23607613  0.80985680  0.13550947     0.08500
O1013       O  0.31259812  0.66957580  0.13168648    -0.40300
O1014       O  0.32551160  0.70237989  0.10983700    -0.39500
O1015       O  0.19064567  0.77592624  0.12008410    -0.39500
O1016       O  0.18318218  0.74993943  0.14569427    -0.37200
O1017       O  0.25811436  0.87795349  0.14897060    -0.38100
O1018       O  0.21168794  0.86873055  0.15336357    -0.34300
O1019       O  0.29416050  0.73121059  0.18191339    -0.35700
O1020       O  0.24809804  0.71810077  0.18265096    -0.40000
C1021       C  0.22071499  0.97065474  0.16428034    -0.13700
C1022       C  0.24470734  0.98011681  0.15311576     0.16700
C1023       C  0.27164007  0.96448273  0.15495861     0.03000
C1024       C  0.27449138  0.94088563  0.16813714    -0.12200
C1025       C  0.25089091  0.93188830  0.17963908    -0.03200
C1026       C  0.22357617  0.94655620  0.17744767     0.02300
C1027       C  0.24529234  0.50804237  0.13784522     0.09100
N1028       N  0.29640571  0.97226929  0.14346274     0.65500
H1029       H  0.29544426  0.92927919  0.16930383     0.18400
N1030       N  0.19925456  0.93900434  0.18933737     0.75900
H1031       H  0.20003889  0.98283871  0.16329604     0.09900
C1032       C  0.22372383  0.51164626  0.12452156     0.03600
C1033       C  0.22430858  0.53816095  0.11296213    -0.05100
C1034       C  0.24648943  0.56096305  0.11424915    -0.23500
C1035       C  0.26714740  0.55808073  0.12822537     0.12800
C1036       C  0.26622354  0.53191954  0.13993413    -0.12700
N1037       N  0.20231118  0.48765123  0.12177716     0.64500
H1038       H  0.20831908  0.53998397  0.10226219     0.12300
N1039       N  0.28887906  0.58177416  0.13091634     0.61100
H1040       H  0.28222324  0.53002927  0.15062550     0.08500
O1041       O  0.17849334  0.92273338  0.18328177    -0.40300
O1042       O  0.19573089  0.95383582  0.20428115    -0.39500
O1043       O  0.31859964  0.98472225  0.15044733    -0.39500
O1044       O  0.29801092  0.96189553  0.12718806    -0.37200
O1045       O  0.28231256  0.60642619  0.13983404    -0.38100
O1046       O  0.31536082  0.57570376  0.12728042    -0.34300
O1047       O  0.17574992  0.49323738  0.12544246    -0.35700
O1048       O  0.20776649  0.95982544  0.11633055    -0.40000
C1049       C  0.24077500  0.76911813  0.97811722    -0.13700
C1050       C  0.26531830  0.76303408  0.98871946     0.16700
C1051       C  0.29175882  0.77866605  0.98441290     0.03000
C1052       C  0.29314878  0.80038631  0.96994476    -0.12200
C1053       C  0.26848782  0.80715627  0.95950121    -0.03200
C1054       C  0.24208807  0.79088316  0.96359920     0.02300
C1055       C  0.26333726  0.73946046  0.00377210     0.09100
N1056       N  0.31721195  0.77342565  0.99498125     0.65500
H1057       H  0.31364603  0.81247647  0.96716271     0.18400
N1058       N  0.21663796  0.79542695  0.95292048     0.75900
H1059       H  0.22056116  0.75649537  0.98093636     0.09900
C1060       C  0.24228281  0.74218339  0.01817264     0.03600
C1061       C  0.24073183  0.71925937  0.03201152    -0.05100
C1062       C  0.26026854  0.69379651  0.03199274    -0.23500
C1063       C  0.28109932  0.69081306  0.01747933     0.12800
C1064       C  0.28231695  0.71346565  0.00346223    -0.12700
N1065       N  0.22306549  0.76870088  0.01929425     0.64500
H1066       H  0.22466765  0.72186169  0.04311703     0.12300
N1067       N  0.30022952  0.66421659  0.01633540     0.61100
H1068       H  0.29794740  0.71054060  0.99215214     0.08500
O1069       O  0.19559071  0.81141679  0.95944493    -0.40300
O1070       O  0.21307691  0.77893170  0.93868135    -0.39500
O1071       O  0.33876657  0.75899057  0.98786590    -0.39500
O1072       O  0.31990087  0.78739527  0.01018765    -0.37200
O1073       O  0.32644922  0.66710919  0.02099200    -0.38100
O1074       O  0.29249154  0.63985397  0.00772526    -0.34300
O1075       O  0.19612653  0.76492522  0.01677450    -0.35700
O1076       O  0.23207902  0.79441738  0.02584336    -0.40000
C1077       C  0.23999866  0.53889573  0.00386516    -0.13700
C1078       C  0.25765686  0.51213676  0.00610351     0.16700
C1079       C  0.27309039  0.50873810  0.02256338     0.03000
C1080       C  0.27150918  0.53234062  0.03607602    -0.12200
C1081       C  0.25401907  0.55914939  0.03380408    -0.03200
C1082       C  0.23791176  0.56221837  0.01757361     0.02300
C1083       C  0.25979831  0.98698384  0.98950981     0.09100
N1084       N  0.29176926  0.97996972  0.02358796     0.65500
H1085       H  0.28363304  0.52941885  0.04859131     0.18400
N1086       N  0.22087451  0.58980523  0.01427753     0.75900
H1087       H  0.22854482  0.54225073  0.99113978     0.09900
C1088       C  0.23577402  0.97094065  0.98213172     0.03600
C1089       C  0.24002757  0.94984691  0.96744608    -0.05100
C1090       C  0.26799843  0.94428884  0.95967404    -0.23500
C1091       C  0.29191643  0.96134340  0.96664943     0.12800
C1092       C  0.28762210  0.98227039  0.98143452    -0.12700
N1093       N  0.20698539  0.97506837  0.98975986     0.64500
H1094       H  0.22125556  0.93724678  0.96238337     0.12300
N1095       N  0.32052936  0.95864772  0.95851941     0.61100
H1096       H  0.30614686  0.99534846  0.98646227     0.08500
O1097       O  0.23311991  0.61430614  0.00789758    -0.40300
O1098       O  0.19337759  0.58792713  0.01458405    -0.39500
O1099       O  0.31909637  0.98363279  0.02388460    -0.39500
O1100       O  0.28070648  0.95383549  0.02836492    -0.37200
O1101       O  0.32774459  0.97617732  0.94511339    -0.38100
O1102       O  0.33997345  0.94354657  0.96679846    -0.34300
O1103       O  0.18831489  0.99020902  0.98082664    -0.35700
O1104       O  0.19995682  0.46277759  0.00390430    -0.40000
O1105       O  0.73191332  0.15925344  0.05349667    -0.72200
O1106       O  0.72384840  0.09293845  0.09280442    -0.73200
O1107       O  0.72839277  0.16027860  0.09247181    -0.61800
O1108       O  0.72777581  0.09259156  0.05336859    -0.70300
O1109       O  0.77576254  0.08767997  0.05562647    -0.69800
O1110       O  0.77664658  0.15804739  0.09279766    -0.61100
O1111       O  0.77205817  0.09135809  0.09478965    -0.73600
O1112       O  0.78014029  0.15421190  0.05360203    -0.72300
Cu1113     Cu  0.72628442  0.12632003  0.07302979     1.04600
Cu1114     Cu  0.77781391  0.12265363  0.07426186     1.04300
C1115       C  0.75721922  0.16688264  0.04719242     0.94000
C1116       C  0.74674008  0.08206672  0.10025328     0.93100
C1117       C  0.75266762  0.17032765  0.09860099     0.85200
C1118       C  0.75183904  0.07967760  0.04821473     0.91500
C1119       C  0.74777275  0.13098248  0.78108000     0.87200
C1120       C  0.74966750  0.10095536  0.79282498    -0.53000
C1121       C  0.77463304  0.09838434  0.80251192     0.10100
C1122       C  0.79584825  0.12624442  0.79977796     0.21100
C1123       C  0.75283877  0.15820097  0.79487237    -0.53800
C1124       C  0.77809793  0.15609513  0.80436790     0.10200
C1125       C  0.77603332  0.13106550  0.76908587    -0.53300
C1126       C  0.80130414  0.12835074  0.77878626     0.10800
H1127       H  0.73237663  0.08340294  0.79369862     0.15300
H1128       H  0.81578140  0.12347694  0.80793072     0.01000
H1129       H  0.73853252  0.17806244  0.79713989     0.15600
H1130       H  0.77604113  0.13385700  0.75424026     0.15400
O1131       O  0.76077469  0.40652151  0.89934933    -0.72200
O1132       O  0.75158268  0.34380888  0.94042340    -0.73200
O1133       O  0.75181365  0.41074275  0.93829374    -0.61800
O1134       O  0.76068741  0.33927683  0.90197397    -0.70300
O1135       O  0.80877199  0.34125932  0.90480693    -0.69800
O1136       O  0.79957512  0.41113020  0.94214265    -0.61100
O1137       O  0.79950359  0.34395459  0.94365034    -0.73600
O1138       O  0.80853356  0.40852377  0.90312340    -0.72300
Cu1139     Cu  0.75458973  0.37516262  0.91984680     1.04600
Cu1140     Cu  0.80577304  0.37626323  0.92354562     1.04300
C1141       C  0.78586281  0.41766340  0.89471011     0.94000
C1142       C  0.77417167  0.33358384  0.94843990     0.93100
C1143       C  0.77419544  0.42192550  0.94625975     0.85200
C1144       C  0.78616139  0.32881342  0.89780677     0.91500
C1145       C  0.79049363  0.38079714  0.21237786     0.87200
C1146       C  0.78833354  0.35185247  0.19970215    -0.53000
C1147       C  0.76299523  0.34987795  0.19020989     0.10100
C1148       C  0.74178918  0.37731470  0.19424198     0.21100
C1149       C  0.78484344  0.40910520  0.19958412    -0.53800
C1150       C  0.75975681  0.40711931  0.18994901     0.10200
C1151       C  0.76284350  0.37958760  0.22476396    -0.53300
C1152       C  0.73738152  0.37775638  0.21537495     0.10800
H1153       H  0.80576953  0.33466509  0.19806034     0.15300
H1154       H  0.72118513  0.37567004  0.18661111     0.01000
H1155       H  0.79869784  0.42958927  0.19790470     0.15600
H1156       H  0.76341094  0.37997436  0.23967632     0.15400
O1157       O  0.53247318  0.40563066  0.59447970    -0.72200
O1158       O  0.52910339  0.34013772  0.55428095    -0.73200
O1159       O  0.53391759  0.40658039  0.55518018    -0.61800
O1160       O  0.52807752  0.33891680  0.59345903    -0.70300
O1161       O  0.97974255  0.34079554  0.59299204    -0.69800
O1162       O  0.98576183  0.41164575  0.55576556    -0.61100
O1163       O  0.98096113  0.34528356  0.55356380    -0.73600
O1164       O  0.98423208  0.40821186  0.59509186    -0.72300
Cu1165     Cu  0.53252494  0.37269609  0.57437869     1.04600
Cu1166     Cu  0.98096275  0.37662597  0.57442327     1.04300
C1167       C  0.50880598  0.41725354  0.60126112     0.94000
C1168       C  0.50461625  0.33298899  0.54726565     0.93100
C1169       C  0.51088198  0.41951193  0.54914738     0.85200
C1170       C  0.50319178  0.32889060  0.59921546     0.91500
O1171       O  0.50062525  0.15920766  0.39631602    -0.72200
O1172       O  0.49194464  0.09661170  0.43764797    -0.73200
O1173       O  0.49216620  0.16378018  0.43532280    -0.61800
O1174       O  0.50029798  0.09253467  0.39898138    -0.70300
O1175       O  0.54841262  0.09344779  0.40166477    -0.69800
O1176       O  0.54009001  0.16406844  0.43855134    -0.61100
O1177       O  0.54001649  0.09733124  0.44073977    -0.73600
O1178       O  0.54860694  0.16041600  0.39984989    -0.72300
Cu1179     Cu  0.49458793  0.12804343  0.41692516     1.04600
Cu1180     Cu  0.54594436  0.12877671  0.42029814     1.04300
C1181       C  0.52589041  0.16974536  0.39161110     0.94000
C1182       C  0.51476319  0.08720102  0.44577935     0.93100
C1183       C  0.51487589  0.17515150  0.44282519     0.85200
C1184       C  0.52555372  0.08181141  0.39451115     0.91500
C1185       C  0.98414117  0.38019211  0.27994957     0.87200
C1186       C  0.98577422  0.35144475  0.29272786    -0.53000
C1187       C  0.51117388  0.34883259  0.30204040     0.10100
C1188       C  0.53342053  0.37505087  0.29721157     0.21100
C1189       C  0.99131004  0.40847890  0.29252061    -0.53800
C1190       C  0.51694392  0.40570336  0.30154133     0.10200
C1191       C  0.51120718  0.37779156  0.26709298    -0.53300
C1192       C  0.53701099  0.37508890  0.27602993     0.10800
H1193       H  0.96796541  0.33468681  0.29427350     0.15300
H1194       H  0.55441929  0.37316933  0.30437942     0.01000
H1195       H  0.97814545  0.42941967  0.29434699     0.15600
H1196       H  0.51006162  0.37859462  0.25219591     0.15400
C1197       C  0.55390186  0.12711550  0.71275452     0.87200
C1198       C  0.55160850  0.09752106  0.70055282    -0.53000
C1199       C  0.52590741  0.09478856  0.69145092     0.12500
C1200       C  0.00453771  0.12201469  0.69541893     0.21100
C1201       C  0.54744391  0.15471124  0.69949638    -0.53800
C1202       C  0.52187596  0.15197883  0.69033188     0.10200
C1203       C  0.52664419  0.12614758  0.72554554    -0.53300
C1204       C  0.00105422  0.12300197  0.71651397     0.10800
H1205       H  0.56916917  0.08047125  0.69896822     0.15300
H1206       H  0.98351209  0.11961014  0.68834198     0.01000
H1207       H  0.56126400  0.17504017  0.69708604     0.15600
H1208       H  0.52739202  0.12828953  0.74041862     0.15400
C1209       C  0.55201441  0.02753274  0.35569053    -0.13700
C1210       C  0.52924093  0.00539558  0.35545002     0.16700
C1211       C  0.00579415  0.00812530  0.36826737     0.03000
C1212       C  0.50518088  0.03311070  0.38086020    -0.12200
C1213       C  0.52785526  0.05542286  0.38117438    -0.03200
C1214       C  0.55166803  0.05227417  0.36855368     0.02300
C1215       C  0.53523703  0.48036333  0.33917151     0.09100
N1216       N  0.98222269  0.98598238  0.36842848     0.65500
H1217       H  0.98676042  0.03498083  0.39047174     0.18400
N1218       N  0.57516643  0.07448885  0.36823362     0.75900
H1219       H  0.57014849  0.02551825  0.34589462     0.09900
C1220       C  0.52952293  0.48705825  0.32066708     0.03600
C1221       C  0.52558416  0.46227536  0.30829081    -0.05100
C1222       C  0.52713653  0.43070371  0.31412009    -0.23500
C1223       C  0.53494372  0.42409921  0.33240952     0.12800
C1224       C  0.53869129  0.44900434  0.34480329    -0.12700
N1225       N  0.52304813  0.01696989  0.31624539     0.64500
H1226       H  0.52000062  0.46771162  0.29422431     0.12300
N1227       N  0.53695733  0.39244085  0.33904230     0.61100
H1228       H  0.04323361  0.44380037  0.35907931     0.08500
O1229       O  0.57509226  0.09707682  0.35690767    -0.40300
O1230       O  0.59807862  0.06846784  0.37685921    -0.39500
O1231       O  0.98105122  0.96455214  0.38049459    -0.39500
O1232       O  0.96540983  0.50070445  0.35053172    -0.37200
O1233       O  0.56163037  0.37925614  0.33924908    -0.38100
O1234       O  0.01647312  0.38140485  0.34902283    -0.34300
O1235       O  0.54384193  0.02912617  0.30698090    -0.35700
O1236       O  0.49853279  0.03051920  0.31689751    -0.40000
C1237       C  0.51112365  0.21900282  0.34942028    -0.13700
C1238       C  0.52894846  0.24530588  0.35247422     0.16700
C1239       C  0.54767396  0.24539069  0.36759656     0.03000
C1240       C  0.54772744  0.21948086  0.37959319    -0.12200
C1241       C  0.52868910  0.19391932  0.37707368    -0.03200
C1242       C  0.51082231  0.19342116  0.36155857     0.02300
C1243       C  0.52576178  0.27309338  0.34040307     0.09100
N1244       N  0.56477126  0.27258409  0.37185892     0.65500
H1245       H  0.56127052  0.22031657  0.39161504     0.18400
N1246       N  0.49250302  0.16696068  0.35784637     0.75900
H1247       H  0.49694565  0.21862819  0.33768912     0.09900
C1248       C  0.54844084  0.28366671  0.32850175     0.03600
C1249       C  0.54349775  0.30918715  0.31678682    -0.05100
C1250       C  0.51614072  0.32386432  0.31607894    -0.23500
C1251       C  0.49369438  0.31363224  0.32847095     0.12800
C1252       C  0.49874527  0.28846541  0.34040506    -0.12700
N1253       N  0.57569685  0.26730264  0.32722921     0.64500
H1254       H  0.56149405  0.31674172  0.30728445     0.12300
N1255       N  0.96586757  0.32883606  0.32949309     0.61100
H1256       H  0.48129677  0.28071738  0.34976673     0.08500
O1257       O  0.50320968  0.14307126  0.34981474    -0.40300
O1258       O  0.46514164  0.16965520  0.35955789    -0.39500
O1259       O  0.55233181  0.29671720  0.37853129    -0.39500
O1260       O  0.59217842  0.27022187  0.37257963    -0.37200
O1261       O  0.96302936  0.35426697  0.33838843    -0.38100
O1262       O  0.94333246  0.31370917  0.32508409    -0.34300
O1263       O  0.57714276  0.24135811  0.31871993    -0.35700
O1264       O  0.59897474  0.28159469  0.33103418    -0.40000
C1265       C  0.53936933  0.46760321  0.50820502    -0.13700
C1266       C  0.51730453  0.49023205  0.50648258     0.16700
C1267       C  0.99285612  0.48916064  0.51867040     0.03000
C1268       C  0.99105317  0.46594023  0.53240545    -0.12200
C1269       C  0.51332457  0.44349448  0.53429448    -0.03200
C1270       C  0.53755329  0.44428095  0.52183767     0.02300
C1271       C  0.50907457  0.02388682  0.49207524     0.09100
N1272       N  0.96996472  0.51189805  0.51749828     0.65500
H1273       H  0.97229265  0.46577379  0.54179158     0.18400
N1274       N  0.55961752  0.42045447  0.52208443     0.75900
H1275       H  0.55769885  0.46736870  0.49848421     0.09900
C1276       C  0.52837233  0.04986681  0.49196435     0.03600
C1277       C  0.53016020  0.06980926  0.47661503    -0.05100
C1278       C  0.51215225  0.06517092  0.46150578    -0.23500
C1279       C  0.49195031  0.03999408  0.46190038     0.12800
C1280       C  0.49084711  0.01938537  0.47701142    -0.12700
N1281       N  0.54561243  0.05683510  0.50760251     0.64500
H1282       H  0.54520317  0.08958384  0.47672035     0.12300
N1283       N  0.97361246  0.03392780  0.44664301     0.61100
H1284       H  0.97910927  0.49804249  0.47921577     0.08500
O1285       O  0.58519827  0.42751650  0.52667824    -0.40300
O1286       O  0.55469999  0.39376638  0.51507644    -0.39500
O1287       O  0.94547029  0.50369168  0.51150282    -0.39500
O1288       O  0.95132878  0.03031146  0.52109801    -0.37200
O1289       O  0.48301917  0.01722843  0.43340695    -0.38100
O1290       O  0.95229226  0.54472307  0.45298632    -0.34300
O1291       O  0.57311005  0.05694995  0.50604592    -0.35700
O1292       O  0.53343890  0.06766121  0.52203895    -0.40000
C1293       C  0.53289691  0.23897549  0.47787990    -0.13700
C1294       C  0.50574714  0.24347517  0.48685009     0.16700
C1295       C  0.98116360  0.22737016  0.48025513     0.03000
C1296       C  0.98433979  0.20618464  0.46546469    -0.12200
C1297       C  0.51182375  0.20050969  0.45700025    -0.03200
C1298       C  0.53614320  0.21792498  0.46309927     0.02300
C1299       C  0.50378325  0.26530609  0.50291775     0.09100
N1300       N  0.95309829  0.23109766  0.48901165     0.65500
H1301       H  0.96531190  0.19325649  0.46107182     0.18400
N1302       N  0.56424110  0.21501822  0.45426710     0.75900
H1303       H  0.55178887  0.25206906  0.48235402     0.09900
C1304       C  0.52188881  0.26110285  0.51816527     0.03600
C1305       C  0.52205691  0.28357606  0.53229654    -0.05100
C1306       C  0.50381832  0.31008958  0.53187109    -0.23500
C1307       C  0.98527052  0.31411769  0.51679360     0.12800
C1308       C  0.98544583  0.29180820  0.50246974    -0.12700
N1309       N  0.53962343  0.23355011  0.51972730     0.64500
H1310       H  0.53608312  0.27988566  0.54390449     0.12300
N1311       N  0.96763443  0.34176317  0.51522714     0.61100
H1312       H  0.97193617  0.29577964  0.49065478     0.08500
O1313       O  0.58475144  0.20175690  0.46258130    -0.40300
O1314       O  0.56971947  0.22992484  0.43953415    -0.39500
O1315       O  0.93277917  0.24430906  0.48049026    -0.39500
O1316       O  0.94749762  0.21734791  0.50410487    -0.37200
O1317       O  0.97886043  0.36696092  0.50903246    -0.38100
O1318       O  0.94026632  0.33973397  0.51729550    -0.34300
O1319       O  0.56708379  0.23604533  0.51926053    -0.35700
O1320       O  0.52794806  0.20757076  0.52420024    -0.40000
C1321       C  0.50337284  0.04627460  0.64984897    -0.13700
C1322       C  0.51072499  0.01562812  0.65538232     0.16700
C1323       C  0.02190077  0.01107697  0.67313697     0.03000
C1324       C  0.02638720  0.03706503  0.68466926    -0.12200
C1325       C  0.51961397  0.06784719  0.67897967    -0.03200
C1326       C  0.50754942  0.07225845  0.66143907     0.02300
C1327       C  0.50935409  0.48977872  0.64342075     0.09100
N1328       N  0.02850207  0.98015303  0.67969610     0.65500
H1329       H  0.03504405  0.03313140  0.69823184     0.18400
N1330       N  0.50185358  0.10309252  0.65444072     0.75900
H1331       H  0.49567831  0.05032393  0.63606096     0.09900
C1332       C  0.48340186  0.48160986  0.63455713     0.03600
C1333       C  0.48368074  0.45784797  0.62108352    -0.05100
C1334       C  0.50955324  0.44165770  0.61612383    -0.23500
C1335       C  0.03545196  0.44957198  0.62535834     0.12800
C1336       C  0.03508994  0.47341537  0.63876541    -0.12700
N1337       N  0.45771232  0.99818679  0.63581277     0.64500
H1338       H  0.46343084  0.45221039  0.61441470     0.12300
N1339       N  0.06242978  0.43386955  0.62129427     0.61100
H1340       H  0.05531926  0.47975252  0.64526562     0.08500
O1341       O  0.52185342  0.11738349  0.64555824    -0.40300
O1342       O  0.47575636  0.11198807  0.65283674    -0.39500
O1343       O  0.05460813  0.97274674  0.68276817    -0.39500
O1344       O  0.00804786  0.96232184  0.68528035    -0.37200
O1345       O  0.08041997  0.44601333  0.60990996    -0.38100
O1346       O  0.07058350  0.41169930  0.63156066    -0.34300
O1347       O  0.44710246  0.01674530  0.62415194    -0.35700
O1348       O  0.44219108  0.98932370  0.64945057    -0.40000
C1349       C  0.98363055  0.21304405  0.66058908    -0.13700
C1350       C  0.50614818  0.22066496  0.64787033     0.16700
C1351       C  0.53258758  0.20372753  0.64839509     0.03000
C1352       C  0.53667603  0.18107330  0.66203872    -0.12200
C1353       C  0.51466265  0.17415501  0.67521194    -0.03200
C1354       C  0.98757129  0.18979643  0.67414364     0.02300
C1355       C  0.50360655  0.24890091  0.63582911     0.09100
N1356       N  0.55570304  0.20957314  0.63524466     0.65500
H1357       H  0.55740454  0.16879120  0.66238480     0.18400
N1358       N  0.96486265  0.18462859  0.68763873     0.75900
H1359       H  0.96340611  0.22627065  0.66059208     0.09900
C1360       C  0.98102755  0.25249895  0.62312907     0.03600
C1361       C  0.98030981  0.27943275  0.61181805    -0.05100
C1362       C  0.50197677  0.30286142  0.61287249    -0.23500
C1363       C  0.52367870  0.29983067  0.62621761     0.12800
C1364       C  0.52423904  0.27315545  0.63751500    -0.12700
N1365       N  0.95951299  0.22842001  0.62097472     0.64500
H1366       H  0.96349007  0.28135527  0.60164600     0.12300
N1367       N  0.54480651  0.32416073  0.62888224     0.61100
H1368       H  0.54093011  0.27143622  0.64778561     0.08500
O1369       O  0.94548340  0.16420893  0.68461442    -0.40300
O1370       O  0.95990023  0.20555121  0.69967134    -0.39500
O1371       O  0.57903632  0.22236826  0.64037031    -0.39500
O1372       O  0.55501853  0.19661629  0.61962066    -0.37200
O1373       O  0.53851817  0.34717379  0.63926349    -0.38100
O1374       O  0.57097305  0.31989211  0.62364431    -0.34300
O1375       O  0.93363288  0.23312292  0.62666073    -0.35700
O1376       O  0.96512066  0.20496992  0.61078516    -0.40000
C1377       C  0.60153882  0.39374144  0.24355073    -0.13700
C1378       C  0.62218675  0.37183707  0.24947132     0.16700
C1379       C  0.61464333  0.35078634  0.26378275     0.03000
C1380       C  0.58669728  0.35193359  0.27185583    -0.12200
C1381       C  0.56600710  0.37406484  0.26634058    -0.03200
C1382       C  0.57367859  0.39526827  0.25195123     0.02300
C1383       C  0.65192777  0.37234232  0.24114178     0.09100
N1384       N  0.63555780  0.32907899  0.27068731     0.65500
H1385       H  0.58110004  0.33485060  0.28297715     0.18400
N1386       N  0.55420755  0.41972228  0.24651670     0.75900
H1387       H  0.60742922  0.41041295  0.23270749     0.09900
C1388       C  0.66036865  0.35100762  0.22715760     0.03600
C1389       C  0.68827574  0.35321666  0.21893445    -0.05100
C1390       C  0.70819777  0.37620093  0.22464292    -0.23500
C1391       C  0.69988755  0.39712568  0.23900477     0.12800
C1392       C  0.67184047  0.39508851  0.24703743    -0.12700
N1393       N  0.64065317  0.32730944  0.22101001     0.64500
H1394       H  0.69446925  0.33676738  0.20810025     0.12300
N1395       N  0.71920180  0.42126652  0.24514921     0.61100
H1396       H  0.66541941  0.41157705  0.25780163     0.08500
O1397       O  0.54452548  0.41990876  0.23039683    -0.40300
O1398       O  0.55070551  0.44369669  0.25664158    -0.39500
O1399       O  0.65208621  0.33770062  0.28339463    -0.39500
O1400       O  0.63335650  0.30010331  0.26694709    -0.37200
O1401       O  0.72025429  0.44739770  0.23683101    -0.38100
O1402       O  0.73044925  0.41889364  0.26077382    -0.34300
O1403       O  0.62360853  0.33348163  0.20811635    -0.35700
O1404       O  0.64395606  0.29905043  0.22603080    -0.40000
C1405       C  0.92065662  0.35723407  0.24853091    -0.13700
C1406       C  0.90035014  0.38118034  0.25213108     0.16700
C1407       C  0.90707373  0.40507040  0.26474884     0.03000
C1408       C  0.93411125  0.40503813  0.27329005    -0.12200
C1409       C  0.95506242  0.38115408  0.26977226    -0.03200
C1410       C  0.94761896  0.35680312  0.25724201     0.02300
C1411       C  0.87260152  0.38145107  0.24213743     0.09100
N1412       N  0.88604834  0.42872164  0.26974401     0.65500
H1413       H  0.93743799  0.42342079  0.28321122     0.18400
N1414       N  0.96698220  0.33107781  0.25333426     0.75900
H1415       H  0.91553648  0.33868707  0.23884359     0.09900
C1416       C  0.86722227  0.40456503  0.22880737     0.03600
C1417       C  0.84088272  0.40438929  0.21951800    -0.05100
C1418       C  0.81914845  0.38125522  0.22304541    -0.23500
C1419       C  0.82525348  0.35754302  0.23626322     0.12800
C1420       C  0.85160599  0.35808204  0.24571642    -0.12700
N1421       N  0.88902843  0.42744309  0.22378769     0.64500
H1422       H  0.83885943  0.42197932  0.20898241     0.12300
N1423       N  0.80521368  0.33231579  0.24007597     0.61100
H1424       H  0.85582541  0.33992992  0.25582505     0.08500
O1425       O  0.98133557  0.33080408  0.23828029    -0.40300
O1426       O  0.46373089  0.30562103  0.26219607    -0.39500
O1427       O  0.86418384  0.42129934  0.27974586    -0.39500
O1428       O  0.89208841  0.45750527  0.26724338    -0.37200
O1429       O  0.80742601  0.30708029  0.23092358    -0.38100
O1430       O  0.79099397  0.33208977  0.25518033    -0.34300
O1431       O  0.91140127  0.41890370  0.21461215    -0.35700
O1432       O  0.88342766  0.45648608  0.22540695    -0.40000
C1433       C  0.68644393  0.10814585  0.74767242    -0.13700
C1434       C  0.66493313  0.13068368  0.75170680     0.16700
C1435       C  0.67040158  0.15387235  0.76499741     0.03000
C1436       C  0.69725381  0.15454559  0.77381139    -0.12200
C1437       C  0.71929645  0.13187572  0.77006387    -0.03200
C1438       C  0.71323897  0.10833935  0.75669638     0.02300
C1439       C  0.63698806  0.13000947  0.74177689     0.09100
N1440       N  0.64817713  0.17586338  0.77052109     0.65500
H1441       H  0.69945825  0.17237772  0.78418846     0.18400
N1442       N  0.73356864  0.08363587  0.75251165     0.75900
H1443       H  0.68232737  0.09006804  0.73749628     0.09900
C1444       C  0.63094095  0.15254577  0.72822626     0.03600
C1445       C  0.60441060  0.15157876  0.71907562    -0.05100
C1446       C  0.58294321  0.12837154  0.72312051    -0.23500
C1447       C  0.58954738  0.10546597  0.73673814     0.12800
C1448       C  0.61621971  0.10662399  0.74588516    -0.12700
N1449       N  0.65210154  0.17596753  0.72305533     0.64500
H1450       H  0.60178395  0.16888048  0.70842868     0.12300
N1451       N  0.56943784  0.08076365  0.74153628     0.61100
H1452       H  0.62076335  0.08907043  0.75628494     0.08500
O1453       O  0.75081137  0.08662240  0.73880228    -0.40300
O1454       O  0.72859802  0.05638388  0.75886435    -0.39500
O1455       O  0.62650499  0.16635591  0.78006380    -0.39500
O1456       O  0.65289449  0.20511869  0.76901869    -0.37200
O1457       O  0.57056703  0.05505760  0.73277873    -0.38100
O1458       O  0.55610644  0.08164100  0.75694372    -0.34300
O1459       O  0.67149862  0.16945288  0.71102051    -0.35700
O1460       O  0.64782652  0.20439367  0.72753713    -0.40000
C1461       C  0.88269955  0.14094014  0.76819606    -0.13700
C1462       C  0.88617436  0.12547411  0.75122220     0.16700
C1463       C  0.86186447  0.11013736  0.74368934     0.03000
C1464       C  0.83469322  0.11107248  0.75298365    -0.12200
C1465       C  0.83091220  0.12749123  0.76970650    -0.03200
C1466       C  0.85548412  0.14246346  0.77734879     0.02300
C1467       C  0.91551305  0.12501684  0.74193943     0.09100
N1468       N  0.86418571  0.09432024  0.72633729     0.65500
H1469       H  0.81638608  0.09894455  0.74698494     0.18400
N1470       N  0.85318308  0.16082272  0.79382126     0.75900
H1471       H  0.90127871  0.15230914  0.77435747     0.09900
C1472       C  0.93162797  0.15314765  0.73898304     0.03600
C1473       C  0.95998990  0.15176990  0.73142711    -0.05100
C1474       C  0.97233294  0.12294638  0.72610108    -0.23500
C1475       C  0.95660411  0.09482230  0.72912600     0.12800
C1476       C  0.92845784  0.09599097  0.73712606    -0.12700
N1477       N  0.91908615  0.18336941  0.74291317     0.64500
H1478       H  0.97219377  0.17341848  0.72922607     0.12300
N1479       N  0.96940794  0.06491762  0.72477440     0.61100
H1480       H  0.91693317  0.07410434  0.73993445     0.08500
O1481       O  0.86570346  0.15133469  0.80808199    -0.40300
O1482       O  0.84614975  0.18950173  0.79267447    -0.39500
O1483       O  0.86220321  0.06462655  0.72569436    -0.39500
O1484       O  0.86333474  0.11011686  0.71163132    -0.37200
O1485       O  0.98633319  0.05210430  0.73599942    -0.38100
O1486       O  0.96052164  0.04933149  0.71120822    -0.34300
O1487       O  0.93047133  0.20106689  0.75473797    -0.35700
O1488       O  0.90006801  0.19444420  0.73243204    -0.40000
C1489       C  0.78938841  0.23657231  0.82643500    -0.13700
C1490       C  0.79662249  0.22799567  0.84438554     0.16700
C1491       C  0.80091050  0.19583101  0.84851184     0.03000
C1492       C  0.79672011  0.17285078  0.83493413    -0.12200
C1493       C  0.78738366  0.18122214  0.81735094    -0.03200
C1494       C  0.78493373  0.21364244  0.81290763     0.02300
C1495       C  0.79622263  0.25260697  0.85893410     0.09100
N1496       N  0.80888388  0.18612515  0.86654684     0.65500
H1497       H  0.79981598  0.14836906  0.83843210     0.18400
N1498       N  0.77810687  0.22373963  0.79470813     0.75900
H1499       H  0.78617886  0.26121935  0.82304817     0.09900
C1500       C  0.81474881  0.27921192  0.85794481     0.03600
C1501       C  0.81146979  0.30359895  0.87089384    -0.05100
C1502       C  0.78958200  0.30221814  0.88473818    -0.23500
C1503       C  0.77131667  0.27540839  0.88584913     0.12800
C1504       C  0.77477868  0.25093697  0.87302222    -0.12700
N1505       N  0.83700127  0.28173138  0.84388855     0.64500
H1506       H  0.82576474  0.32397410  0.86992385     0.12300
N1507       N  0.74992394  0.27209654  0.90035934     0.61100
H1508       H  0.76017009  0.23080958  0.87382673     0.08500
O1509       O  0.79806217  0.22493423  0.78244170    -0.40300
O1510       O  0.75420078  0.23752942  0.79198284    -0.39500
O1511       O  0.79020609  0.17282541  0.87700399    -0.39500
O1512       O  0.83547775  0.18552811  0.87065449    -0.37200
O1513       O  0.72355961  0.27844032  0.89735732    -0.38100
O1514       O  0.75625778  0.25683449  0.91463216    -0.34300
O1515       O  0.83411857  0.30122815  0.83092385    -0.35700
O1516       O  0.86144743  0.26882770  0.84619272    -0.40000
C1517       C  0.78242331  0.01543340  0.82159545    -0.13700
C1518       C  0.78307424  0.02145951  0.84056852     0.16700
C1519       C  0.78274315  0.05292943  0.84682867     0.03000
C1520       C  0.78086813  0.07768736  0.83415605    -0.12200
C1521       C  0.77975909  0.07171934  0.81521839    -0.03200
C1522       C  0.78095553  0.04025667  0.80889765     0.02300
C1523       C  0.78794742  0.48957991  0.85237987     0.09100
N1524       N  0.78266826  0.06000311  0.86606819     0.65500
H1525       H  0.77875596  0.10151777  0.83924026     0.18400
N1526       N  0.78113517  0.03319106  0.78965033     0.75900
H1527       H  0.78325268  0.99131844  0.81663037     0.09900
C1528       C  0.76379153  0.46916448  0.85468579     0.03600
C1529       C  0.76407936  0.44546363  0.86811511    -0.05100
C1530       C  0.78808708  0.44141859  0.87958511    -0.23500
C1531       C  0.81282090  0.46107021  0.87674630     0.12800
C1532       C  0.81249536  0.48482316  0.86326226    -0.12700
N1533       N  0.73577034  0.97587129  0.84297393     0.64500
H1534       H  0.74494443  0.43058131  0.86982302     0.12300
N1535       N  0.83813969  0.45791698  0.88770413     0.61100
H1536       H  0.83154277  0.49977039  0.86133941     0.08500
O1537       O  0.76152179  0.01564414  0.78328388    -0.40300
O1538       O  0.80364830  0.03917686  0.77989689    -0.39500
O1539       O  0.80525297  0.07136510  0.87315997    -0.39500
O1540       O  0.75898050  0.05929696  0.87530240    -0.37200
O1541       O  0.85830764  0.43938426  0.88260012    -0.38100
O1542       O  0.84267345  0.47754401  0.90038818    -0.34300
O1543       O  0.73095491  0.45187294  0.83285334    -0.35700
O1544       O  0.71554636  0.99473187  0.84750361    -0.40000
C1545       C  0.77600584  0.22789404  0.13608997    -0.13700
C1546       C  0.75069277  0.24617428  0.13869544     0.16700
C1547       C  0.72644031  0.23993475  0.12765625     0.03000
C1548       C  0.72765018  0.21536437  0.11469182    -0.12200
C1549       C  0.75277744  0.19656056  0.11232088    -0.03200
C1550       C  0.77727642  0.20331025  0.12317079     0.02300
C1551       C  0.75068997  0.27233332  0.15247079     0.09100
N1552       N  0.70011558  0.25777450  0.12977699     0.65500
H1553       H  0.70863145  0.21091579  0.10649558     0.18400
N1554       N  0.80348384  0.18514277  0.12159116     0.75900
H1555       H  0.79514697  0.23291018  0.14406524     0.09900
C1556       C  0.75896263  0.26697759  0.17080746     0.03600
C1557       C  0.76235132  0.29245326  0.18286944    -0.05100
C1558       C  0.75724777  0.32357161  0.17717744    -0.23500
C1559       C  0.74808961  0.32894694  0.15901512     0.12800
C1560       C  0.74501906  0.30342898  0.14685544    -0.12700
N1561       N  0.76381220  0.23568768  0.17742292     0.64500
H1562       H  0.76896834  0.28786388  0.19684329     0.12300
N1563       N  0.74441821  0.36025987  0.15215900     0.61100
H1564       H  0.73945034  0.30812000  0.13270529     0.08500
O1565       O  0.80898321  0.16495701  0.13379400    -0.40300
O1566       O  0.82356451  0.19382495  0.11050254    -0.39500
O1567       O  0.69196525  0.27532843  0.11684200    -0.39500
O1568       O  0.68282028  0.25211098  0.14316403    -0.37200
O1569       O  0.76587566  0.37406486  0.14446404    -0.38100
O1570       O  0.71900689  0.37081236  0.14990863    -0.34300
O1571       O  0.78901341  0.22752594  0.18218470    -0.35700
O1572       O  0.74230115  0.21790115  0.18102083    -0.40000
C1573       C  0.72359248  0.47079496  0.16133967    -0.13700
C1574       C  0.74705586  0.47944889  0.14953431     0.16700
C1575       C  0.77331861  0.46228526  0.15010464     0.03000
C1576       C  0.77638023  0.43831092  0.16300443    -0.12200
C1577       C  0.75350175  0.43037810  0.17534037    -0.03200
C1578       C  0.72654600  0.44616230  0.17412813     0.02300
C1579       C  0.74253728  0.00775384  0.14061006     0.09100
N1580       N  0.79720291  0.46910486  0.13768184     0.65500
H1581       H  0.79698323  0.42579544  0.16344261     0.18400
N1582       N  0.70283222  0.43916057  0.18661227     0.75900
H1583       H  0.70337353  0.48401613  0.16115235     0.09900
C1584       C  0.72155242  0.00951804  0.12675576     0.03600
C1585       C  0.72230012  0.03477029  0.11421714    -0.05100
C1586       C  0.74408473  0.05809645  0.11503817    -0.23500
C1587       C  0.76399847  0.05715617  0.12952637     0.12800
C1588       C  0.76277019  0.03244129  0.14225644    -0.12700
N1589       N  0.70051167  0.98496321  0.12456025     0.64500
H1590       H  0.70674051  0.03521519  0.10321956     0.12300
N1591       N  0.78531615  0.08142791  0.13170902     0.61100
H1592       H  0.77818287  0.03220979  0.15333718     0.08500
O1593       O  0.68239055  0.42151495  0.18144437    -0.40300
O1594       O  0.69908684  0.45587924  0.20083856    -0.39500
O1595       O  0.82071199  0.48002476  0.14379301    -0.39500
O1596       O  0.79643803  0.45958057  0.12124191    -0.37200
O1597       O  0.77913489  0.10508832  0.14159507    -0.38100
O1598       O  0.81157470  0.07627366  0.12698821    -0.34300
O1599       O  0.67392511  0.99020283  0.12834469    -0.35700
O1600       O  0.70938589  0.46255979  0.11340770    -0.40000
C1601       C  0.74329225  0.27101450  0.98144725    -0.13700
C1602       C  0.76746553  0.26515347  0.99238376     0.16700
C1603       C  0.79365869  0.28166350  0.98882709     0.03000
C1604       C  0.79539897  0.30356075  0.97441165    -0.12200
C1605       C  0.77120063  0.30975519  0.96341654    -0.03200
C1606       C  0.74484367  0.29306641  0.96708782     0.02300
C1607       C  0.76539534  0.24049792  0.00680447     0.09100
N1608       N  0.81839583  0.27710250  0.00013396     0.65500
H1609       H  0.81574577  0.31616976  0.97205920     0.18400
N1610       N  0.71965100  0.29748980  0.95615212     0.75900
H1611       H  0.72318621  0.25797845  0.98389017     0.09900
C1612       C  0.74478766  0.24273883  0.02145593     0.03600
C1613       C  0.74197680  0.21809570  0.03419269    -0.05100
C1614       C  0.75985054  0.19130530  0.03279654    -0.23500
C1615       C  0.78042227  0.18894866  0.01808976     0.12800
C1616       C  0.78305027  0.21352978  0.00524480    -0.12700
N1617       N  0.72743851  0.27048719  0.02397355     0.64500
H1618       H  0.72637153  0.22036810  0.04557933     0.12300
N1619       N  0.79753551  0.16104047  0.01543452     0.61100
H1620       H  0.79840674  0.21122397  0.99373204     0.08500
O1621       O  0.69922966  0.31504359  0.96201792    -0.40300
O1622       O  0.71516778  0.27907858  0.94286393    -0.39500
O1623       O  0.84129620  0.26464692  0.99343554    -0.39500
O1624       O  0.81867910  0.28917030  0.01601258    -0.37200
O1625       O  0.82478795  0.16206308  0.01749164    -0.38100
O1626       O  0.78625807  0.13702681  0.00816594    -0.34300
O1627       O  0.70012943  0.26904826  0.02224110    -0.35700
O1628       O  0.73874474  0.29501265  0.03063177    -0.40000
C1629       C  0.73712284  0.03522649  0.00380948    -0.13700
C1630       C  0.75627194  0.00949977  0.00519662     0.16700
C1631       C  0.77323354  0.00666487  0.02107769     0.03000
C1632       C  0.77148764  0.02975743  0.03487266    -0.12200
C1633       C  0.75236459  0.05544791  0.03349620    -0.03200
C1634       C  0.73483601  0.05793893  0.01783674     0.02300
C1635       C  0.76150210  0.48923641  0.99064272     0.09100
N1636       N  0.78973871  0.48095278  0.02594833     0.65500
H1637       H  0.78479881  0.02726498  0.04691935     0.18400
N1638       N  0.71591733  0.08435257  0.01544751     0.75900
H1639       H  0.72451534  0.03826626  0.99151352     0.09900
C1640       C  0.73758704  0.47374258  0.98278493     0.03600
C1641       C  0.74213906  0.45268422  0.96809280    -0.05100
C1642       C  0.77033965  0.44662456  0.96079763    -0.23500
C1643       C  0.79420815  0.46310450  0.96830249     0.12800
C1644       C  0.78960010  0.48388449  0.98314081    -0.12700
N1645       N  0.70860482  0.47829737  0.99000356     0.64500
H1646       H  0.72342410  0.44043199  0.96268862     0.12300
N1647       N  0.82312631  0.45993948  0.96067491     0.61100
H1648       H  0.80808490  0.49648555  0.98860263     0.08500
O1649       O  0.72602337  0.10969008  0.00872363    -0.40300
O1650       O  0.68863788  0.08070830  0.01710476    -0.39500
O1651       O  0.81711676  0.48285956  0.02715012    -0.39500
O1652       O  0.77684152  0.45577406  0.03067350    -0.37200
O1653       O  0.83026114  0.47490098  0.94622018    -0.38100
O1654       O  0.84265228  0.44686203  0.96995637    -0.34300
O1655       O  0.69041591  0.49363651  0.98079841    -0.35700
O1656       O  0.69879388  0.95913364  0.00357969    -0.40000
O1657       O  0.73298439  0.66306207  0.05366554    -0.72200
O1658       O  0.72597517  0.59684802  0.09281809    -0.73200
O1659       O  0.73007585  0.66409067  0.09271791    -0.61800
O1660       O  0.72938519  0.59655812  0.05347145    -0.70300
O1661       O  0.77743339  0.59195863  0.05559488    -0.69800
O1662       O  0.77834526  0.66233939  0.09287510    -0.61100
O1663       O  0.77421734  0.59554681  0.09470143    -0.73600
O1664       O  0.78125194  0.65849699  0.05356780    -0.72300
Cu1665     Cu  0.72792145  0.63024235  0.07319138     1.04600
Cu1666     Cu  0.77949545  0.62699266  0.07424307     1.04300
C1667       C  0.75812770  0.67062681  0.04709664     0.94000
C1668       C  0.74897345  0.58588697  0.10007194     0.93100
C1669       C  0.75430820  0.67426327  0.09885748     0.85200
C1670       C  0.75347815  0.58372479  0.04829984     0.91500
C1671       C  0.75175655  0.62642625  0.77961288     0.87200
C1672       C  0.75450938  0.59549463  0.79042139    -0.53000
C1673       C  0.77923117  0.59311790  0.80046620     0.10100
C1674       C  0.79924472  0.62234661  0.79892059     0.21100
C1675       C  0.75521716  0.65271924  0.79409421    -0.53800
C1676       C  0.77992794  0.65083324  0.80403058     0.10200
C1677       C  0.78045609  0.62900459  0.76809953    -0.53300
C1678       C  0.80556802  0.62650602  0.77807145     0.10800
H1679       H  0.73769176  0.57739862  0.79056476     0.15300
H1680       H  0.81870143  0.62001141  0.80746759     0.01000
H1681       H  0.74064296  0.67259194  0.79591118     0.15600
H1682       H  0.78080595  0.63337628  0.75338713     0.15400
O1683       O  0.75685152  0.90865558  0.89826622    -0.72200
O1684       O  0.74828697  0.84209624  0.93713416    -0.73200
O1685       O  0.74878526  0.90914408  0.93712107    -0.61800
O1686       O  0.75636718  0.84167601  0.89836176    -0.70300
O1687       O  0.80433420  0.84162881  0.90156131    -0.69800
O1688       O  0.79672469  0.90959568  0.94021642    -0.61100
O1689       O  0.79622111  0.84245862  0.94030693    -0.73600
O1690       O  0.80485711  0.90914567  0.90128994    -0.72300
Cu1691     Cu  0.75094178  0.87545051  0.91758365     1.04600
Cu1692     Cu  0.80221793  0.87571102  0.92092849     1.04300
C1693       C  0.78199144  0.91961950  0.89365090     0.94000
C1694       C  0.77101435  0.83159804  0.94489687     0.93100
C1695       C  0.77144239  0.92005743  0.94488777     0.85200
C1696       C  0.78153961  0.83063064  0.89398910     0.91500
C1697       C  0.78568665  0.88030244  0.21676187     0.87200
C1698       C  0.78433552  0.85207924  0.20354330    -0.53000
C1699       C  0.75963444  0.85045639  0.19339817     0.10100
C1700       C  0.73819153  0.87779225  0.19737444     0.21100
C1701       C  0.78081925  0.90930066  0.20434760    -0.53800
C1702       C  0.75636150  0.90786145  0.19404155     0.10200
C1703       C  0.75729960  0.87850834  0.22844544    -0.53300
C1704       C  0.73243435  0.87719737  0.21839960     0.10800
H1705       H  0.80194575  0.83505782  0.20207064     0.15300
H1706       H  0.71804844  0.87662758  0.18927418     0.01000
H1707       H  0.79473457  0.92988051  0.20350481     0.15600
H1708       H  0.75695598  0.87813985  0.24337292     0.15400
O1709       O  0.53583084  0.90945812  0.59124096    -0.72200
O1710       O  0.53545689  0.84453764  0.55101796    -0.73200
O1711       O  0.53647154  0.91183197  0.55205519    -0.61800
O1712       O  0.53436950  0.84269705  0.59012120    -0.70300
O1713       O  0.98599318  0.84240438  0.58983755    -0.69800
O1714       O  0.98815741  0.91294524  0.55294869    -0.61100
O1715       O  0.98706020  0.84614565  0.55056684    -0.73600
O1716       O  0.98751229  0.90955202  0.59202108    -0.72300
Cu1717     Cu  0.53720622  0.87710105  0.57107010     1.04600
Cu1718     Cu  0.98550588  0.87780537  0.57135464     1.04300
C1719       C  0.51175471  0.91965535  0.59816956     0.94000
C1720       C  0.51136904  0.83514214  0.54438363     0.93100
C1721       C  0.51250558  0.92354663  0.54653016     0.85200
C1722       C  0.50987856  0.83163948  0.59600912     0.91500
O1723       O  0.50768449  0.65493342  0.39890699    -0.72200
O1724       O  0.50227899  0.58940453  0.43860157    -0.73200
O1725       O  0.50186009  0.65650349  0.43799109    -0.61800
O1726       O  0.50817917  0.58849440  0.39980116    -0.70300
O1727       O  0.55642401  0.58944923  0.40133583    -0.69800
O1728       O  0.54996110  0.65686832  0.44021144    -0.61100
O1729       O  0.55048303  0.58972985  0.44053521    -0.73600
O1730       O  0.55588484  0.65650959  0.40122743    -0.72300
Cu1731     Cu  0.50335672  0.62232668  0.41875580     1.04600
Cu1732     Cu  0.55489018  0.62312721  0.42090322     1.04300
C1733       C  0.53251528  0.66603137  0.39376844     0.94000
C1734       C  0.52552367  0.57904678  0.44583175     0.93100
C1735       C  0.52491620  0.66755060  0.44521539     0.85200
C1736       C  0.53319561  0.57833014  0.39439459     0.91500
C1737       C  0.97949271  0.87639642  0.28396626     0.87200
C1738       C  0.98246731  0.84798362  0.29685308    -0.53000
C1739       C  0.50836729  0.84633103  0.30577569     0.10100
C1740       C  0.52976822  0.87304201  0.30028722     0.21100
C1741       C  0.98668979  0.90529134  0.29606979    -0.53800
C1742       C  0.51279499  0.90339948  0.30469067     0.10200
C1743       C  0.50597021  0.87442595  0.27061248    -0.53300
C1744       C  0.53225588  0.87243921  0.27903389     0.10800
H1745       H  0.96522675  0.83063579  0.29863656     0.15300
H1746       H  0.55118945  0.87200636  0.30703840     0.01000
H1747       H  0.97324712  0.92612492  0.29765793     0.15600
H1748       H  0.50412466  0.87478347  0.25575652     0.15400
C1749       C  0.55843076  0.63057804  0.71069115     0.87200
C1750       C  0.55481665  0.60054047  0.69904240    -0.53000
C1751       C  0.52900047  0.59851035  0.69004278     0.12500
C1752       C  0.00875946  0.62697196  0.69354801     0.21100
C1753       C  0.55314179  0.65777992  0.69696894    -0.53800
C1754       C  0.52734230  0.65588642  0.68801057     0.10200
C1755       C  0.53114652  0.63162614  0.72353565    -0.53300
C1756       C  0.00536288  0.62917483  0.71462545     0.10800
H1757       H  0.57160083  0.58253418  0.69780299     0.15300
H1758       H  0.98762011  0.62537988  0.68647327     0.01000
H1759       H  0.56774555  0.67739245  0.69428812     0.15600
H1760       H  0.53205788  0.63402285  0.73838643     0.15400
C1761       C  0.55984414  0.52421893  0.35551051    -0.13700
C1762       C  0.53498311  0.50557244  0.35311465     0.16700
C1763       C  0.00992754  0.51071416  0.36422489     0.03000
C1764       C  0.50990970  0.53443084  0.37756274    -0.12200
C1765       C  0.53474052  0.55329198  0.38016137    -0.03200
C1766       C  0.55999239  0.54794150  0.36896981     0.02300
C1767       C  0.52979067  0.97947098  0.34178527     0.09100
N1768       N  0.98417651  0.49217597  0.36194031     0.65500
H1769       H  0.99033671  0.53793257  0.38597959     0.18400
N1770       N  0.58565179  0.56679120  0.37074142     0.75900
H1771       H  0.57918164  0.52029429  0.34691986     0.09900
C1772       C  0.52564011  0.98542783  0.32296496     0.03600
C1773       C  0.52206020  0.96016580  0.31081118    -0.05100
C1774       C  0.52282009  0.92882087  0.31708293    -0.23500
C1775       C  0.52925006  0.92287346  0.33566999     0.12800
C1776       C  0.53241463  0.94821395  0.34786538    -0.12700
N1777       N  0.52582778  0.51883074  0.31456188     0.64500
H1778       H  0.51736996  0.96506504  0.29653596     0.12300
N1779       N  0.53050383  0.89143140  0.34272530     0.61100
H1780       H  0.03592166  0.94343765  0.36230327     0.08500
O1781       O  0.58962182  0.59035417  0.36034303    -0.40300
O1782       O  0.60647616  0.55669119  0.38014075    -0.39500
O1783       O  0.97824476  0.47010433  0.37308965    -0.39500
O1784       O  0.96057707  0.99063777  0.35837126    -0.37200
O1785       O  0.55466592  0.87715778  0.34250571    -0.38100
O1786       O  0.01005345  0.88166161  0.35328361    -0.34300
O1787       O  0.54600547  0.53216928  0.30532156    -0.35700
O1788       O  0.50095433  0.53153249  0.31575423    -0.40000
C1789       C  0.51422877  0.71623154  0.35257392    -0.13700
C1790       C  0.53153010  0.74298661  0.35552301     0.16700
C1791       C  0.55098797  0.74321812  0.37029168     0.03000
C1792       C  0.55248096  0.71684578  0.38191357    -0.12200
C1793       C  0.53394749  0.69082407  0.37952227    -0.03200
C1794       C  0.51512798  0.69036198  0.36445948     0.02300
C1795       C  0.52700511  0.77094532  0.34372978     0.09100
N1796       N  0.56728000  0.77094354  0.37468026     0.65500
H1797       H  0.56663652  0.71767496  0.39364691     0.18400
N1798       N  0.49683085  0.66375499  0.36102972     0.75900
H1799       H  0.49940322  0.71575116  0.34116807     0.09900
C1800       C  0.54918311  0.78340703  0.33208692     0.03600
C1801       C  0.54298598  0.80891490  0.32053503    -0.05100
C1802       C  0.51470345  0.82161757  0.31978481    -0.23500
C1803       C  0.49281647  0.80964742  0.33203979     0.12800
C1804       C  0.49918984  0.78455712  0.34375015    -0.12700
N1805       N  0.57738911  0.76902233  0.33082287     0.64500
H1806       H  0.56019351  0.81774481  0.31156747     0.12300
N1807       N  0.96415473  0.82293160  0.33315568     0.61100
H1808       H  0.48216588  0.77549220  0.35295434     0.08500
O1809       O  0.50689456  0.64072564  0.35187978    -0.40300
O1810       O  0.46967279  0.66573628  0.36414648    -0.39500
O1811       O  0.55396789  0.79522770  0.38041733    -0.39500
O1812       O  0.59460426  0.76923582  0.37627800    -0.37200
O1813       O  0.96002881  0.84830635  0.34191752    -0.38100
O1814       O  0.94244214  0.80626512  0.32896976    -0.34300
O1815       O  0.58038251  0.74304857  0.32248408    -0.35700
O1816       O  0.59976584  0.78495336  0.33458168    -0.40000
C1817       C  0.53652442  0.98475266  0.51052217    -0.13700
C1818       C  0.50990346  0.99956058  0.50681894     0.16700
C1819       C  0.98435225  0.98927837  0.51625951     0.03000
C1820       C  0.98578726  0.96454874  0.52899529    -0.12200
C1821       C  0.51242952  0.94961959  0.53275848    -0.03200
C1822       C  0.53805972  0.96010967  0.52333368     0.02300
C1823       C  0.51938848  0.51342580  0.49116010     0.09100
N1824       N  0.95689112  0.00424518  0.51338399     0.65500
H1825       H  0.96582173  0.95731299  0.53611807     0.18400
N1826       N  0.56569463  0.94547917  0.52610278     0.75900
H1827       H  0.55622263  0.99179613  0.50302681     0.09900
C1828       C  0.54390246  0.53333793  0.48881518     0.03600
C1829       C  0.54581829  0.55391163  0.47373803    -0.05100
C1830       C  0.52354483  0.55525993  0.46081051    -0.23500
C1831       C  0.49934322  0.53470677  0.46292221     0.12800
C1832       C  0.49746676  0.51414248  0.47801614    -0.12700
N1833       N  0.56663012  0.53359804  0.50194559     0.64500
H1834       H  0.56451649  0.56952796  0.47244282     0.12300
N1835       N  0.97720906  0.53328195  0.44941212     0.61100
H1836       H  0.97635486  0.99911175  0.47667813     0.08500
O1837       O  0.58466379  0.95953031  0.53539467    -0.40300
O1838       O  0.57295819  0.92167501  0.51661297    -0.39500
O1839       O  0.93658559  0.98902611  0.50598537    -0.39500
O1840       O  0.97255411  0.53829224  0.52534077    -0.37200
O1841       O  0.48093514  0.51606965  0.43538450    -0.38100
O1842       O  0.94682397  0.04073978  0.44781334    -0.34300
O1843       O  0.59134188  0.52228958  0.49764785    -0.35700
O1844       O  0.56356438  0.54967394  0.51648564    -0.40000
C1845       C  0.54345310  0.73196743  0.47984125    -0.13700
C1846       C  0.51612001  0.73762504  0.48836087     0.16700
C1847       C  0.99155575  0.72103808  0.48206424     0.03000
C1848       C  0.99482922  0.69884446  0.46783840    -0.12200
C1849       C  0.52235572  0.69248366  0.45963719    -0.03200
C1850       C  0.54681554  0.70968960  0.46570048     0.02300
C1851       C  0.51371598  0.76171892  0.50327799     0.09100
N1852       N  0.96328231  0.72570433  0.49036905     0.65500
H1853       H  0.97570404  0.68601787  0.46350790     0.18400
N1854       N  0.57514506  0.70551870  0.45738316     0.75900
H1855       H  0.56236491  0.74531751  0.48401771     0.09900
C1856       C  0.53228645  0.76088636  0.51850469     0.03600
C1857       C  0.53147456  0.78533277  0.53147038    -0.05100
C1858       C  0.51187966  0.81053825  0.52991561    -0.23500
C1859       C  0.99301470  0.81128565  0.51485776     0.12800
C1860       C  0.99419468  0.78708448  0.50165260    -0.12700
N1861       N  0.55149790  0.73484744  0.52129347     0.64500
H1862       H  0.54576583  0.78415502  0.54312708     0.12300
N1863       N  0.97392365  0.83744682  0.51215147     0.61100
H1864       H  0.98046717  0.78869679  0.48975789     0.08500
O1865       O  0.59436502  0.69031680  0.46580811    -0.40300
O1866       O  0.58230833  0.72116404  0.44318632    -0.39500
O1867       O  0.94356510  0.73895521  0.48132774    -0.39500
O1868       O  0.95663561  0.71185039  0.50527365    -0.37200
O1869       O  0.98382841  0.86248318  0.50492513    -0.38100
O1870       O  0.94668357  0.83377878  0.51410513    -0.34300
O1871       O  0.57877425  0.73903890  0.52033953    -0.35700
O1872       O  0.54140727  0.70930903  0.52775836    -0.40000
C1873       C  0.50471346  0.54749738  0.64981884    -0.13700
C1874       C  0.51080170  0.51704876  0.65631275     0.16700
C1875       C  0.02142553  0.51355380  0.67426041     0.03000
C1876       C  0.02673452  0.54026974  0.68506283    -0.12200
C1877       C  0.52150724  0.57083936  0.67837831    -0.03200
C1878       C  0.50999729  0.57429551  0.66062226     0.02300
C1879       C  0.50998852  0.98950444  0.64168654     0.09100
N1880       N  0.02676225  0.48295536  0.68172199     0.65500
H1881       H  0.03501296  0.53709252  0.69878905     0.18400
N1882       N  0.50633500  0.60477717  0.65259986     0.75900
H1883       H  0.49728209  0.55060905  0.63588451     0.09900
C1884       C  0.48473094  0.98255813  0.63172640     0.03600
C1885       C  0.48579255  0.95974794  0.61773891    -0.05100
C1886       C  0.51175671  0.94344090  0.61328840    -0.23500
C1887       C  0.03705711  0.95036631  0.62339364     0.12800
C1888       C  0.03591915  0.97319292  0.63734589    -0.12700
N1889       N  0.45647908  0.49692208  0.63931519     0.64500
H1890       H  0.46609011  0.95492137  0.61027379     0.12300
N1891       N  0.06413607  0.93455646  0.61976733     0.61100
H1892       H  0.05572801  0.97882686  0.64451493     0.08500
O1893       O  0.52755110  0.61723727  0.64388900    -0.40300
O1894       O  0.48092247  0.61533498  0.65036101    -0.39500
O1895       O  0.05265066  0.47405151  0.68417833    -0.39500
O1896       O  0.00582979  0.46735504  0.68877052    -0.37200
O1897       O  0.08230719  0.94630368  0.60835217    -0.38100
O1898       O  0.07236359  0.91332005  0.63065022    -0.34300
O1899       O  0.44450747  0.51467995  0.62777912    -0.35700
O1900       O  0.44251010  0.48881530  0.65374796    -0.40000
C1901       C  0.99054855  0.72014284  0.66007540    -0.13700
C1902       C  0.51169355  0.72513383  0.64600871     0.16700
C1903       C  0.53667006  0.70574180  0.64524819     0.03000
C1904       C  0.54085761  0.68303202  0.65885592    -0.12200
C1905       C  0.52019589  0.67848328  0.67317259    -0.03200
C1906       C  0.99456055  0.69690352  0.67360803     0.02300
C1907       C  0.50970413  0.75302470  0.63369824     0.09100
N1908       N  0.55817398  0.70914474  0.63078076     0.65500
H1909       H  0.56053982  0.66884587  0.65828315     0.18400
N1910       N  0.97400406  0.69464173  0.68865266     0.75900
H1911       H  0.97162299  0.73541256  0.66110195     0.09900
C1912       C  0.98605679  0.75774266  0.62195862     0.03600
C1913       C  0.98597928  0.78398868  0.61013780    -0.05100
C1914       C  0.50921474  0.80579559  0.60981145    -0.23500
C1915       C  0.53202332  0.80180479  0.62231312     0.12800
C1916       C  0.53210671  0.77560861  0.63401317    -0.12700
N1917       N  0.96259512  0.73553764  0.62137237     0.64500
H1918       H  0.96814036  0.78673849  0.60074685     0.12300
N1919       N  0.55449570  0.82497177  0.62397989     0.61100
H1920       H  0.54973002  0.77302250  0.64358505     0.08500
O1921       O  0.95121604  0.67824656  0.68694298    -0.40300
O1922       O  0.97528840  0.71430250  0.70165731    -0.39500
O1923       O  0.58334434  0.71921493  0.63436489    -0.39500
O1924       O  0.55339848  0.69781052  0.61507367    -0.37200
O1925       O  0.54979614  0.84906667  0.63381379    -0.38100
O1926       O  0.58022646  0.81866700  0.61858890    -0.34300
O1927       O  0.93768881  0.74306797  0.62774021    -0.35700
O1928       O  0.96552284  0.71065190  0.61196853    -0.40000
C1929       C  0.59540155  0.89102010  0.24553591    -0.13700
C1930       C  0.61596651  0.86841992  0.25069214     0.16700
C1931       C  0.60855941  0.84652321  0.26459314     0.03000
C1932       C  0.58097762  0.84778471  0.27329495    -0.12200
C1933       C  0.56063055  0.87098900  0.26866358    -0.03200
C1934       C  0.56791269  0.89258749  0.25443011     0.02300
C1935       C  0.64581782  0.86978602  0.24252924     0.09100
N1936       N  0.62928490  0.82376698  0.27055719     0.65500
H1937       H  0.57556636  0.83057831  0.28376263     0.18400
N1938       N  0.54841523  0.91740302  0.24962120     0.75900
H1939       H  0.60112639  0.90822476  0.23499870     0.09900
C1940       C  0.65454394  0.85033218  0.22769057     0.03600
C1941       C  0.68277071  0.85324969  0.21996845    -0.05100
C1942       C  0.70266321  0.87522387  0.22692167    -0.23500
C1943       C  0.69381891  0.89463732  0.24188550     0.12800
C1944       C  0.66558158  0.89169957  0.24952344    -0.12700
N1945       N  0.63485127  0.82784895  0.22018494     0.64500
H1946       H  0.68926050  0.83802663  0.20859878     0.12300
N1947       N  0.71271234  0.91835742  0.24899216     0.61100
H1948       H  0.65886183  0.90694889  0.26083516     0.08500
O1949       O  0.53651713  0.91704565  0.23413497    -0.40300
O1950       O  0.54719970  0.94210647  0.25931412    -0.39500
O1951       O  0.64641625  0.83083386  0.28326200    -0.39500
O1952       O  0.62669412  0.79529245  0.26577327    -0.37200
O1953       O  0.71475341  0.94471484  0.24097565    -0.38100
O1954       O  0.72243293  0.91541129  0.26500642    -0.34300
O1955       O  0.62046369  0.83508233  0.20621216    -0.35700
O1956       O  0.63619450  0.79934092  0.22511825    -0.40000
C1957       C  0.91565322  0.85412493  0.25253042    -0.13700
C1958       C  0.89451343  0.87649385  0.25756156     0.16700
C1959       C  0.90039649  0.89817310  0.27159740     0.03000
C1960       C  0.92761060  0.89804543  0.27991475    -0.12200
C1961       C  0.94973441  0.87644003  0.27456073    -0.03200
C1962       C  0.94280001  0.85344959  0.26106119     0.02300
C1963       C  0.86685256  0.87784300  0.24750916     0.09100
N1964       N  0.87844657  0.91971895  0.27807415     0.65500
H1965       H  0.93032712  0.91433442  0.29111706     0.18400
N1966       N  0.96285013  0.82892533  0.25594770     0.75900
H1967       H  0.91101316  0.83699367  0.24190699     0.09900
C1968       C  0.86240263  0.90136928  0.23429572     0.03600
C1969       C  0.83630320  0.90229281  0.22475671    -0.05100
C1970       C  0.81380494  0.87991232  0.22799709    -0.23500
C1971       C  0.81892851  0.85576301  0.24115381     0.12800
C1972       C  0.84509724  0.85520588  0.25083475    -0.12700
N1973       N  0.88494870  0.92359791  0.22968563     0.64500
H1974       H  0.83503015  0.92005096  0.21424124     0.12300
N1975       N  0.79811230  0.83113831  0.24463142     0.61100
H1976       H  0.84861657  0.83671624  0.26085214     0.08500
O1977       O  0.97419266  0.82880423  0.23993438    -0.40300
O1978       O  0.46340813  0.80401812  0.26547303    -0.39500
O1979       O  0.85899299  0.91024380  0.28938200    -0.39500
O1980       O  0.88175327  0.94895132  0.27540372    -0.37200
O1981       O  0.79926049  0.80638381  0.23498224    -0.38100
O1982       O  0.78401230  0.83068884  0.25977829    -0.34300
O1983       O  0.90520176  0.91576702  0.21851864    -0.35700
O1984       O  0.88170883  0.95227907  0.23393596    -0.40000
C1985       C  0.69327876  0.61111752  0.74271880    -0.13700
C1986       C  0.66985003  0.62951317  0.74926538     0.16700
C1987       C  0.67282452  0.64654844  0.76565021     0.03000
C1988       C  0.69893422  0.64518803  0.77522073    -0.12200
C1989       C  0.72329502  0.62763438  0.76859350    -0.03200
C1990       C  0.71960563  0.60957682  0.75229228     0.02300
C1991       C  0.64191990  0.62990677  0.73932555     0.09100
N1992       N  0.64918426  0.66506037  0.77294123     0.65500
H1993       H  0.69909325  0.65726959  0.78826553     0.18400
N1994       N  0.74192361  0.58874779  0.74550438     0.75900
H1995       H  0.69088027  0.59729311  0.73029102     0.09900
C1996       C  0.63708727  0.65178500  0.72523795     0.03600
C1997       C  0.61044082  0.65196094  0.71615566    -0.05100
C1998       C  0.58762399  0.63067242  0.72093027    -0.23500
C1999       C  0.59303051  0.60835637  0.73510212     0.12800
C2000       C  0.61979178  0.60843205  0.74417079    -0.12700
N2001       N  0.65920592  0.67406028  0.71995520     0.64500
H2002       H  0.60858257  0.66871865  0.70512881     0.12300
N2003       N  0.57161595  0.58532690  0.74053245     0.61100
H2004       H  0.62340056  0.59141383  0.75502272     0.08500
O2005       O  0.75441823  0.59441358  0.73017428    -0.40300
O2006       O  0.74419952  0.56163041  0.75250052    -0.39500
O2007       O  0.63266882  0.65380141  0.78546257    -0.39500
O2008       O  0.64791284  0.69409951  0.76918536    -0.37200
O2009       O  0.57060628  0.55939630  0.73202645    -0.38100
O2010       O  0.55897754  0.58765967  0.75611023    -0.34300
O2011       O  0.67523367  0.66886005  0.70591020    -0.35700
O2012       O  0.65963569  0.70088290  0.72749373    -0.40000
C2013       C  0.88727928  0.64182534  0.76807610    -0.13700
C2014       C  0.89065476  0.62966554  0.75018904     0.16700
C2015       C  0.86632183  0.61551336  0.74195888     0.03000
C2016       C  0.83935093  0.61435838  0.75145495    -0.12200
C2017       C  0.83551938  0.62743825  0.76916999    -0.03200
C2018       C  0.86024976  0.64095454  0.77760239     0.02300
C2019       C  0.92008673  0.63010269  0.74087915     0.09100
N2020       N  0.86843376  0.60269993  0.72376953     0.65500
H2021       H  0.82122180  0.60302323  0.74479149     0.18400
N2022       N  0.85874982  0.65427951  0.79567495     0.75900
H2023       H  0.90594534  0.65181539  0.77487620     0.09900
C2024       C  0.93716382  0.65793752  0.73971952     0.03600
C2025       C  0.96543828  0.65688514  0.73186906    -0.05100
C2026       C  0.97664345  0.62884963  0.72436559    -0.23500
C2027       C  0.95978751  0.60111813  0.72547055     0.12800
C2028       C  0.93198548  0.60180792  0.73393221    -0.12700
N2029       N  0.92560992  0.68770450  0.74561455     0.64500
H2030       H  0.97834834  0.67829836  0.73106400     0.12300
N2031       N  0.97103055  0.57186439  0.71857013     0.61100
H2032       H  0.91984240  0.57995396  0.73533165     0.08500
O2033       O  0.86978646  0.63916644  0.80876241    -0.40300
O2034       O  0.85540153  0.68367506  0.79735836    -0.39500
O2035       O  0.86579831  0.57332860  0.72139853    -0.39500
O2036       O  0.86807945  0.62095898  0.71005143    -0.37200
O2037       O  0.98854477  0.55615382  0.72808032    -0.38100
O2038       O  0.96005534  0.55947737  0.70453436    -0.34300
O2039       O  0.93731386  0.70232246  0.75865805    -0.35700
O2040       O  0.90757234  0.70186337  0.73569185    -0.40000
C2041       C  0.79336428  0.73200249  0.82415201    -0.13700
C2042       C  0.79213023  0.72550110  0.84308444     0.16700
C2043       C  0.78988089  0.69385383  0.84904423     0.03000
C2044       C  0.78816895  0.66949916  0.83601652    -0.12200
C2045       C  0.78778515  0.67616152  0.81712380    -0.03200
C2046       C  0.79088977  0.70778685  0.81117405     0.02300
C2047       C  0.79014942  0.75232974  0.85618671     0.09100
N2048       N  0.78634938  0.68631591  0.86817170     0.65500
H2049       H  0.78454864  0.64566622  0.84080272     0.18400
N2050       N  0.78999343  0.71590173  0.79205937     0.75900
H2051       H  0.79493922  0.75624030  0.81943811     0.09900
C2052       C  0.81185608  0.75848187  0.86912872     0.03600
C2053       C  0.80872953  0.78419692  0.88119265    -0.05100
C2054       C  0.78435132  0.80430734  0.88052225    -0.23500
C2055       C  0.76277063  0.79812317  0.86740189     0.12800
C2056       C  0.76580868  0.77227894  0.85549827    -0.12700
N2057       N  0.83764443  0.73957978  0.86974943     0.64500
H2058       H  0.82555882  0.78845814  0.89112363     0.12300
N2059       N  0.73815182  0.81844215  0.86548931     0.61100
H2060       H  0.74908544  0.76785685  0.84550794     0.08500
O2061       O  0.81346460  0.72206833  0.78333976    -0.40300
O2062       O  0.76611901  0.72452322  0.78538360    -0.39500
O2063       O  0.76295299  0.69367604  0.87664517    -0.39500
O2064       O  0.80374848  0.66728627  0.87552075    -0.37200
O2065       O  0.74079489  0.84344144  0.85614040    -0.38100
O2066       O  0.71300579  0.80878450  0.87024374    -0.34300
O2067       O  0.85714789  0.74261849  0.85729732    -0.35700
O2068       O  0.84341099  0.72477365  0.88429151    -0.40000
C2069       C  0.78192582  0.50971556  0.82021760    -0.13700
C2070       C  0.78773775  0.51594071  0.83877407     0.16700
C2071       C  0.79344770  0.54732913  0.84411594     0.03000
C2072       C  0.79239894  0.57173502  0.83113658    -0.12200
C2073       C  0.78483771  0.56584026  0.81287337    -0.03200
C2074       C  0.78048632  0.53427053  0.80728218     0.02300
C2075       C  0.78349312  0.99467232  0.85366525     0.09100
N2076       N  0.79846992  0.55509803  0.86292892     0.65500
H2077       H  0.79613301  0.59560731  0.83565373     0.18400
N2078       N  0.77589825  0.52665487  0.78839347     0.75900
H2079       H  0.77872845  0.48560449  0.81570991     0.09900
C2080       C  0.76043969  0.97267659  0.85448952     0.03600
C2081       C  0.76088548  0.94803372  0.86725569    -0.05100
C2082       C  0.78405761  0.94467029  0.87941670    -0.23500
C2083       C  0.80766521  0.96620340  0.87818713     0.12800
C2084       C  0.80711034  0.99100095  0.86540544    -0.12700
N2085       N  0.73818672  0.47308126  0.84406519     0.64500
H2086       H  0.74263007  0.93172941  0.86783746     0.12300
N2087       N  0.83177712  0.96405301  0.89023178     0.61100
H2088       H  0.82514497  0.00757966  0.86469788     0.08500
O2089       O  0.75276636  0.51273595  0.78389586    -0.40300
O2090       O  0.79688645  0.52881043  0.77687085    -0.39500
O2091       O  0.82297008  0.56584388  0.86746772    -0.39500
O2092       O  0.77727349  0.55583450  0.87435296    -0.37200
O2093       O  0.85437797  0.94912785  0.88512128    -0.38100
O2094       O  0.83270116  0.98184471  0.90413341    -0.34300
O2095       O  0.73191867  0.95630923  0.83015770    -0.35700
O2096       O  0.72059503  0.49515043  0.84789720    -0.40000
C2097       C  0.77745867  0.73182049  0.13651182    -0.13700
C2098       C  0.75145378  0.74856085  0.14001861     0.16700
C2099       C  0.72687047  0.74142208  0.12944935     0.03000
C2100       C  0.72841853  0.71745382  0.11612588    -0.12200
C2101       C  0.75421298  0.70009498  0.11287944    -0.03200
C2102       C  0.77906524  0.70780668  0.12321028     0.02300
C2103       C  0.75086757  0.77405944  0.15425092     0.09100
N2104       N  0.69988639  0.75776204  0.13237660     0.65500
H2105       H  0.70909660  0.71231561  0.10834956     0.18400
N2106       N  0.80603043  0.69126515  0.12065687     0.75900
H2107       H  0.79684483  0.73758790  0.14407729     0.09900
C2108       C  0.76040338  0.76846825  0.17229615     0.03600
C2109       C  0.76237467  0.79347728  0.18482581    -0.05100
C2110       C  0.75488492  0.82444982  0.17989727    -0.23500
C2111       C  0.74448332  0.82994872  0.16201883     0.12800
C2112       C  0.74269617  0.80488314  0.14941527    -0.12700
N2113       N  0.76796768  0.73740121  0.17817965     0.64500
H2114       H  0.76983483  0.78857731  0.19857862     0.12300
N2115       N  0.73792073  0.86111325  0.15587120     0.61100
H2116       H  0.73606931  0.80985037  0.13549823     0.08500
O2117       O  0.81252225  0.66952060  0.13169523    -0.40300
O2118       O  0.82547060  0.70231849  0.10985052    -0.39500
O2119       O  0.69064157  0.77595312  0.12005987    -0.39500
O2120       O  0.68313831  0.74996093  0.14566412    -0.37200
O2121       O  0.75812765  0.87793221  0.14896302    -0.38100
O2122       O  0.71169622  0.86873834  0.15335596    -0.34300
O2123       O  0.79409854  0.73117212  0.18191176    -0.35700
O2124       O  0.74803104  0.71808345  0.18264183    -0.40000
C2125       C  0.72072290  0.97065078  0.16428818    -0.13700
C2126       C  0.74471914  0.98010603  0.15312454     0.16700
C2127       C  0.77164612  0.96446010  0.15496626     0.03000
C2128       C  0.77448762  0.94085637  0.16814152    -0.12200
C2129       C  0.75088360  0.93186551  0.17964234    -0.03200
C2130       C  0.72357484  0.94654655  0.17745302     0.02300
C2131       C  0.74526577  0.50804584  0.13785819     0.09100
N2132       N  0.79641615  0.97224146  0.14347300     0.65500
H2133       H  0.79543634  0.92924074  0.16930733     0.18400
N2134       N  0.69925105  0.93900121  0.18934239     0.75900
H2135       H  0.70005126  0.98284387  0.16330496     0.09900
C2136       C  0.72370478  0.51162341  0.12452714     0.03600
C2137       C  0.72427947  0.53813120  0.11296229    -0.05100
C2138       C  0.74644272  0.56095222  0.11425185    -0.23500
C2139       C  0.76709051  0.55809749  0.12823570     0.12800
C2140       C  0.76617704  0.53194280  0.13994943    -0.12700
N2141       N  0.70231120  0.48760906  0.12178122     0.64500
H2142       H  0.70829757  0.53993452  0.10225668     0.12300
N2143       N  0.78879853  0.58181478  0.13093048     0.61100
H2144       H  0.78216927  0.53007322  0.15064648     0.08500
O2145       O  0.67848464  0.92273871  0.18328627    -0.40300
O2146       O  0.69573529  0.95382563  0.20428923    -0.39500
O2147       O  0.81861290  0.98468272  0.15046094    -0.39500
O2148       O  0.79802201  0.96187061  0.12719771    -0.37200
O2149       O  0.78220266  0.60646270  0.13984375    -0.38100
O2150       O  0.81528839  0.57577087  0.12730391    -0.34300
O2151       O  0.67574377  0.49317535  0.12543824    -0.35700
O2152       O  0.70777074  0.95982778  0.11634193    -0.40000
C2153       C  0.74073904  0.76910982  0.97812084    -0.13700
C2154       C  0.76526936  0.76304218  0.98873724     0.16700
C2155       C  0.79170684  0.77869213  0.98444783     0.03000
C2156       C  0.79310836  0.80040970  0.96997880    -0.12200
C2157       C  0.76846070  0.80716028  0.95951946    -0.03200
C2158       C  0.74206261  0.79087392  0.96360313     0.02300
C2159       C  0.76328151  0.73946068  0.00378405     0.09100
N2160       N  0.81714356  0.77347238  0.99503484     0.65500
H2161       H  0.81360230  0.81251357  0.96720865     0.18400
N2162       N  0.71662575  0.79540265  0.95290984     0.75900
H2163       H  0.72052826  0.75647449  0.98092841     0.09900
C2164       C  0.74221341  0.74216764  0.01817739     0.03600
C2165       C  0.74065830  0.71923537  0.03201128    -0.05100
C2166       C  0.76020161  0.69377823  0.03199265    -0.23500
C2167       C  0.78104250  0.69080829  0.01748402     0.12800
C2168       C  0.78226761  0.71347200  0.00347367    -0.12700
N2169       N  0.72298558  0.76867648  0.01929654     0.64500
H2170       H  0.72458572  0.72182686  0.04311286     0.12300
N2171       N  0.80017452  0.66421364  0.01633707     0.61100
H2172       H  0.79790799  0.71055996  0.99216774     0.08500
O2173       O  0.69556976  0.81139786  0.95941790    -0.40300
O2174       O  0.71308316  0.77889023  0.93867537    -0.39500
O2175       O  0.83872048  0.75905417  0.98793521    -0.39500
O2176       O  0.81979361  0.78744178  0.01024461    -0.37200
O2177       O  0.82639745  0.66711002  0.02098620    -0.38100
O2178       O  0.79243296  0.63984893  0.00773021    -0.34300
O2179       O  0.69605144  0.76489169  0.01676312    -0.35700
O2180       O  0.73198243  0.79439294  0.02585483    -0.40000
C2181       C  0.73993165  0.53888363  0.00385933    -0.13700
C2182       C  0.75759071  0.51212496  0.00609597     0.16700
C2183       C  0.77302470  0.50872319  0.02255519     0.03000
C2184       C  0.77144292  0.53232239  0.03606958    -0.12200
C2185       C  0.75395292  0.55913164  0.03379936    -0.03200
C2186       C  0.73784587  0.56220443  0.01756895     0.02300
C2187       C  0.75979444  0.98698289  0.98952602     0.09100
N2188       N  0.79173190  0.97994887  0.02361978     0.65500
H2189       H  0.78356718  0.52939825  0.04858453     0.18400
N2190       N  0.72081193  0.58979407  0.01427368     0.75900
H2191       H  0.72847696  0.54223985  0.99113432     0.09900
C2192       C  0.73576137  0.97098160  0.98212792     0.03600
C2193       C  0.74001051  0.94988914  0.96744052    -0.05100
C2194       C  0.76798550  0.94428931  0.95968584    -0.23500
C2195       C  0.79191456  0.96130168  0.96668107     0.12800
C2196       C  0.78762447  0.98222692  0.98146793    -0.12700
N2197       N  0.70696592  0.97514977  0.98973726     0.64500
H2198       H  0.72123027  0.93732238  0.96236284     0.12300
N2199       N  0.82053838  0.95855970  0.95857209     0.61100
H2200       H  0.80615874  0.99527191  0.98650985     0.08500
O2201       O  0.73306077  0.61429425  0.00789535    -0.40300
O2202       O  0.69331486  0.58791915  0.01457812    -0.39500
O2203       O  0.81905917  0.98359024  0.02395062    -0.39500
O2204       O  0.78063883  0.95381589  0.02837080    -0.37200
O2205       O  0.82779402  0.97605042  0.94515652    -0.38100
O2206       O  0.83994849  0.94343345  0.96686729    -0.34300
O2207       O  0.68832476  0.99030365  0.98078735    -0.35700
O2208       O  0.69991439  0.46275378  0.00391406    -0.40000
loop_ 
_geom_bond_atom_site_label_1 
_geom_bond_atom_site_label_2 
_geom_bond_distance 
_geom_bond_site_symmetry_2 
_ccdc_geom_bond_type 
O1           Cu9   2.001       .  S
O1           C11   1.277       .  A
O2           Cu9   2.016       .  S
O2           C12   1.278       .  A
O3           Cu9   2.020       .  S
O3           C13   1.280       .  A
O4           Cu9   2.020       .  S
O4           C14   1.279       .  A
O5          Cu10   2.010       .  S
O5           C14   1.278       .  A
O6          Cu10   2.015       .  S
O6           C13   1.278       .  A
O7          Cu10   2.007       .  S
O7           C12   1.278       .  A
O8          Cu10   2.010       .  S
O8           C11   1.278       .  A
Cu9         Cu10   2.370       .  S
C11         C510   1.473       .  S
C12         C482   1.480       .  S
C13         C445   1.493       .  S
C14         C529   1.482       .  S
C15          C16   1.535       .  S
C15          C21   1.542       .  S
C15          C19   1.548       .  S
C15         C333   1.547       .  S
C16          H23   1.086       .  S
C16          C17   1.362       .  D
C17          C18   1.537       .  S
C17         C417   1.481       .  S
C18          C22   1.541       .  S
C18          C20   1.536       .  S
C18          H24   1.107       .  S
C19          H25   1.077       .  S
C19          C20   1.365       .  D
C20         C389   1.490       .  S
C21          H26   1.085       .  S
C21          C22   1.375       .  D
C22         C361   1.494       .  S
O27         Cu35   2.009       .  S
O27          C37   1.279       .  A
O28         Cu35   2.001       .  S
O28          C38   1.276       .  A
O29         Cu35   2.019       .  S
O29          C39   1.280       .  A
O30         Cu35   2.014       .  S
O30          C40   1.278       .  A
O31         Cu36   2.015       .  S
O31          C40   1.278       .  A
O32         Cu36   2.017       .  S
O32          C39   1.278       .  A
O33         Cu36   2.016       .  S
O33          C38   1.280       .  A
O34         Cu36   2.018       .  S
O34          C37   1.278       .  A
Cu35        Cu36   2.367       .  S
C37         C426   1.491       .  S
C38         C501   1.487       .  S
C39         C538   1.494       .  S
C40         C398   1.479       .  S
C41          C42   1.538       .  S
C41          C47   1.536       .  S
C41          C45   1.543       .  S
C41         C314   1.541       .  S
C42          H49   1.086       .  S
C42          C43   1.367       .  D
C43          C44   1.539       .  S
C43         C454   1.489       .  S
C44          C48   1.543       .  S
C44          C46   1.534       .  S
C44          H50   1.108       .  S
C45          H51   1.079       .  S
C45          C46   1.363       .  D
C46         C473   1.481       .  S
C47          H52   1.084       .  S
C47          C48   1.368       .  D
C48         C286   1.483       .  S
O53         Cu61   2.019       .  S
O53          C63   1.279       .  A
O54         Cu61   2.017       .  S
O54          C64   1.279       .  A
O55         Cu61   2.001       .  S
O55          C65   1.277       .  A
O56         Cu61   1.998       .  S
O56          C66   1.277       .  A
O57         Cu62   2.030       .  S
O57        C1170   1.280       .  A
O58         Cu62   2.017       .  S
O58        C1169   1.279       .  A
O59         Cu62   2.014       .  S
O59        C1168   1.278       .  A
O60         Cu62   2.019       .  S
O60        C1167   1.280       .  A
Cu61      Cu1166   2.368   1_455  S
Cu62      Cu1165   2.368       .  S
C63        O1164   1.280   1_455  A
C63         C230   1.496       .  S
C64        O1163   1.278   1_455  A
C64         C202   1.481       .  S
C65        O1162   1.279   1_455  A
C65         C165   1.484       .  S
C66        O1161   1.280   1_455  A
C66         C258   1.483       .  S
O67         Cu75   2.009   1_455  S
O67          C77   1.278       .  A
O68         Cu75   2.011       .  S
O68          C78   1.277   1_655  A
O69         Cu75   2.021       .  S
O69          C79   1.280   1_655  A
O70         Cu75   2.004   1_455  S
O70          C80   1.278       .  A
O71         Cu76   2.019       .  S
O71          C80   1.279       .  A
O72         Cu76   2.012       .  S
O72          C79   1.279       .  A
O73         Cu76   2.008       .  S
O73          C78   1.278       .  A
O74         Cu76   2.002       .  S
O74          C77   1.276       .  A
Cu75        Cu76   2.371   1_655  S
C77         C137   1.474       .  S
C78         C174   1.477       .  S
C79         C193   1.492       .  S
C80         C109   1.481       .  S
C81          C82   1.534       .  S
C81          C85   1.546       .  S
C81        C1191   1.537       .  S
C81         C305   1.540       .  S
C82          H89   1.084       .  S
C82        C1187   1.366       .  D
C83          C84   1.541       .  S
C83        C1186   1.366   1_455  D
C83         C146   1.491       .  S
C84          C88   1.543       .  S
C84          C86   1.532       .  S
C84          H90   1.108       .  S
C85          H91   1.080       .  S
C85        C1190   1.365       .  D
C86        C1189   1.365   1_455  D
C86         C118   1.481       .  S
C87        C1185   1.538   1_455  S
C87          H92   1.085       .  S
C87          C88   1.367       .  D
C88         C277   1.488       .  S
C93          C94   1.540       .  S
C93          C99   1.538       .  S
C93          C97   1.548       .  S
C93         C342   1.545       .  S
C94         H101   1.086       .  S
C94          C95   1.369       .  D
C95        C1200   1.537       .  S
C95         C221   1.489       .  S
C96         C100   1.537       .  S
C96        C1199   1.537       .  S
C96        C1202   1.536       .  S
C96         H102   1.107       .  S
C97         H103   1.080       .  S
C97          C98   1.366       .  D
C98        C1200   1.536       .  S
C98         C249   1.489       .  S
C99         H104   1.085       .  S
C99        C1204   1.364       .  D
C100       C1203   1.364       .  D
C100        C370   1.473       .  S
C105        C106   1.402       .  A
C105        C110   1.404       .  A
C105        H115   1.084       .  S
C106        C663   1.480   1_545  S
C106       C1211   1.408       .  A
C107       C1210   1.408       .  A
C107       C1212   1.398       .  A
C107        N112   1.429   1_545  S
C108        C109   1.404       .  A
C108       C1211   1.398       .  A
C108       H1217   1.084   1_455  S
C109        C110   1.414       .  A
C110        N114   1.428       .  S
C111        C658   1.472       .  S
C111        C116   1.404       .  A
C111        C120   1.400       .  A
N112        O127   1.262       .  A
N112        O680   1.262       .  A
H113       C1212   1.084       .  S
N114        O125   1.262       .  A
N114        O126   1.262       .  A
C116        C117   1.397       .  A
C116        N673   1.429       .  S
C117        C118   1.405       .  A
C117        H122   1.084       .  S
C118        C119   1.412       .  A
C119        C120   1.400       .  A
C119        N123   1.429       .  S
C120       H1228   1.084       .  S
N121        C668   1.428   1_545  S
N121        O131   1.262       .  A
N121        O132   1.262   1_455  A
N123        O129   1.262       .  A
N123       O1234   1.261       .  A
H124       C1224   1.084       .  S
O128        N664   1.262       .  A
O130       N1227   1.261       .  A
C133        C134   1.401       .  A
C133        C138   1.397       .  A
C133        H143   1.084   1_455  S
C134        C139   1.477       .  S
C134        C135   1.410       .  A
C135        C136   1.401       .  A
C135        N140   1.430       .  S
C136        C137   1.404       .  A
C136        H141   1.084       .  S
C137        C138   1.409       .  A
C138        N142   1.429   1_455  S
C139        C144   1.408       .  A
C139        C148   1.399   1_455  A
N140        O155   1.262       .  A
N140        O156   1.262       .  A
N142        O153   1.262   1_655  A
N142        O154   1.262       .  A
C144        C145   1.398       .  A
C144        N149   1.430       .  S
C145        C146   1.402       .  A
C145        H150   1.110       .  S
C146        C147   1.417   1_455  A
C147        C148   1.397       .  A
C147       N1255   1.430       .  S
C148        H152   1.087       .  S
N149        O159   1.262       .  A
N149        O160   1.262       .  A
N151       C1251   1.430       .  S
N151        O157   1.261       .  A
N151        O158   1.262       .  A
C161        C162   1.402       .  A
C161        C166   1.399       .  A
C161        H171   1.084       .  S
C162        C719   1.486       .  S
C162       C1267   1.411   1_455  A
C163        C164   1.402       .  A
C163       C1266   1.411       .  A
C163        N168   1.429       .  S
C164       C1269   1.405       .  A
C164        H169   1.084       .  S
C165        C166   1.415       .  A
C165       C1268   1.405   1_455  A
C166        N170   1.430       .  S
C167        C714   1.487   1_545  S
C167        C172   1.410       .  A
C167        C176   1.405   1_455  A
N168        O183   1.262       .  A
N168        O736   1.262       .  A
N170        O181   1.262       .  A
N170        O182   1.262       .  A
C172        C173   1.399       .  A
C172        N177   1.430       .  S
C173        C174   1.403       .  A
C173        H178   1.084       .  S
C174        C175   1.411   1_455  A
C175        C176   1.402       .  A
C175       N1283   1.429       .  S
C176       H1836   1.083   1_545  S
N177        O187   1.262       .  A
N177        O188   1.262       .  A
N179       C1279   1.429       .  S
N179       O1289   1.262       .  A
N179        O738   1.262       .  A
H180       C1832   1.084       .  S
O184        N720   1.262       .  A
O185       N1283   1.262       .  A
O186        N731   1.262       .  A
C189        C190   1.403       .  A
C189        C194   1.401       .  A
C189        H199   1.084       .  S
C190        C195   1.490       .  S
C190       C1295   1.410   1_455  A
C191        C192   1.405       .  A
C191       C1294   1.410       .  A
C191        N196   1.429       .  S
C192       C1297   1.408       .  A
C192        H197   1.083       .  S
C193        C194   1.415       .  A
C193       C1296   1.408   1_455  A
C194        N198   1.429       .  S
C195        C200   1.411       .  A
C195       C1308   1.405   1_455  A
N196        O211   1.262       .  A
N196        O212   1.262       .  A
N198        O209   1.262       .  A
N198        O210   1.262       .  A
C200        C201   1.400       .  A
C200        N205   1.429       .  S
C201        C202   1.402       .  A
C201        H206   1.084       .  S
C202       C1307   1.413   1_455  A
C203        C204   1.405       .  A
C203       C1306   1.413       .  A
C203        N207   1.430       .  S
C204       C1299   1.405       .  A
C204        H208   1.084       .  S
N205        O215   1.262       .  A
N205        O216   1.262       .  A
N207        O213   1.262       .  A
N207        O214   1.262       .  A
C217        C218   1.403       .  A
C217        C222   1.402       .  A
C217        H227   1.083   1_455  S
C218        C775   1.489   1_545  S
C218       C1323   1.411       .  A
C219        C220   1.401       .  A
C219       C1322   1.411       .  A
C219        N224   1.429   1_545  S
C220       C1325   1.404       .  A
C220        H225   1.084       .  S
C221        C222   1.414       .  A
C221       C1324   1.404       .  A
C222        N226   1.428       .  S
C223        C770   1.490       .  S
C223        C228   1.409   1_455  A
C223       C1336   1.403       .  A
N224        O239   1.262       .  A
N224        O240   1.262       .  A
N226        O237   1.261       .  A
N226        O238   1.262   1_455  A
C228        C229   1.404       .  A
C228        N785   1.429       .  S
C229        C230   1.409   1_655  A
C229        H234   1.083       .  S
C230       C1335   1.417       .  A
C231        C232   1.403       .  A
C231       C1334   1.417       .  A
C231        N235   1.429       .  S
C232       C1327   1.403       .  A
C232        H236   1.084       .  S
N233        C780   1.429       .  S
N233        O243   1.262   1_565  A
N233        O244   1.262       .  A
N235        O241   1.262       .  A
N235        O242   1.262       .  A
C245        C250   1.407       .  A
C245       C1350   1.405       .  A
C245        H255   1.083       .  S
C246        C251   1.488       .  S
C246        C247   1.410       .  A
C246       C1349   1.405   1_455  A
C247        C248   1.395       .  A
C247        N252   1.430       .  S
C248        C249   1.403       .  A
C248        H253   1.084       .  S
C249       C1354   1.412   1_455  A
C250       C1353   1.412       .  A
C250        N254   1.428       .  S
C251        C260   1.402       .  A
C251       C1360   1.411   1_455  A
N252        O267   1.262       .  A
N252        O268   1.262       .  A
N254        O265   1.262       .  A
N254        O266   1.262       .  A
C256        C257   1.407       .  A
C256       C1355   1.411       .  A
C256        N261   1.429       .  S
C257       C1362   1.406       .  A
C257        H262   1.084       .  S
C258        C259   1.411       .  A
C258       C1361   1.406   1_455  A
C259        C260   1.397       .  A
C259        N263   1.429       .  S
C260        H264   1.084       .  S
N261        O271   1.262       .  A
N261        O272   1.262       .  A
N263        O269   1.262       .  A
N263        O270   1.262       .  A
C273        C274   1.401       .  A
C273        C278   1.402       .  A
C273        H283   1.087       .  S
C274        C279   1.477       .  S
C274        C275   1.406       .  A
C275        C276   1.396       .  A
C275        N280   1.429       .  S
C276        C277   1.399       .  A
C276        H281   1.111       .  S
C277        C278   1.415       .  A
C278        N282   1.430       .  S
C279        C284   1.407       .  A
C279        C288   1.400       .  A
N280        O295   1.262       .  A
N280        O296   1.262       .  A
N282        O293   1.262       .  A
N282        O294   1.262       .  A
C284        C285   1.401       .  A
C284        N289   1.428       .  S
C285        C286   1.403       .  A
C285        H290   1.084       .  S
C286        C287   1.414       .  A
C287        C288   1.400       .  A
C287        N291   1.430       .  S
C288        H292   1.084       .  S
N289        O299   1.262       .  A
N289        O300   1.262       .  A
N291        O297   1.261       .  A
N291        O298   1.262       .  A
C301        C302   1.398       .  A
C301        C306   1.402       .  A
C301        H311   1.084       .  S
C302        C307   1.479       .  S
C302        C303   1.404       .  A
C303        C304   1.399       .  A
C303        N308   1.431       .  S
C304        C305   1.414       .  A
C304        H309   1.074       .  S
C305        C306   1.422       .  A
C306        N310   1.430       .  S
C307        C312   1.403       .  A
C307        C316   1.399       .  A
N308        O323   1.262       .  A
N308        O324   1.262       .  A
N310        O321   1.262       .  A
N310       O1426   1.262       .  A
C312        C313   1.397       .  A
C312        N317   1.431       .  S
C313        C314   1.415       .  A
C313        H318   1.074       .  S
C314        C315   1.422       .  A
C315        C316   1.403       .  A
C315        N319   1.430       .  S
C316        H320   1.084       .  S
N317        O327   1.262       .  A
N317        O328   1.262       .  A
N319        O325   1.262       .  A
N319        O326   1.262       .  A
O322       N1414   1.262       .  A
C329        C330   1.399       .  A
C329        C334   1.406       .  A
C329        H339   1.084       .  S
C330        C335   1.485       .  S
C330        C331   1.404       .  A
C331        C332   1.401       .  A
C331        N336   1.431       .  S
C332        C333   1.416       .  A
C332        H337   1.074       .  S
C333        C334   1.424       .  A
C334        N338   1.430       .  S
C335        C340   1.404       .  A
C335        C344   1.399       .  A
N336        O351   1.262       .  A
N336        O352   1.262       .  A
N338        O349   1.262       .  A
N338        O350   1.261       .  A
C340        C341   1.400       .  A
C340        N345   1.430       .  S
C341        C342   1.415       .  A
C341        H346   1.074       .  S
C342        C343   1.424       .  A
C343        C344   1.406       .  A
C343        N347   1.430       .  S
C344        H348   1.084       .  S
N345        O355   1.262       .  A
N345        O356   1.262       .  A
N347        O353   1.262       .  A
N347        O354   1.262       .  A
C357        C358   1.402       .  A
C357        C362   1.400       .  A
C357        H367   1.084       .  S
C358        C363   1.489       .  S
C358        C359   1.410       .  A
C359        C360   1.402       .  A
C359        N364   1.429       .  S
C360        C361   1.407       .  A
C360        H365   1.083       .  S
C361        C362   1.416       .  A
C362        N366   1.429       .  S
C363        C368   1.414       .  A
C363        C372   1.406       .  A
N364        O379   1.262       .  A
N364        O380   1.262       .  A
N366        O377   1.262       .  A
N366        O378   1.261       .  A
C368        C369   1.399       .  A
C368        N373   1.430       .  S
C369        C370   1.397       .  A
C369        H374   1.083       .  S
C370        C371   1.406       .  A
C371        C372   1.402       .  A
C371        N375   1.429       .  S
C372        H376   1.083       .  S
N373        O383   1.262       .  A
N373        O384   1.262       .  A
N375        O381   1.262       .  A
N375        O382   1.262       .  A
C385        C386   1.401       .  A
C385        C390   1.400       .  A
C385        H395   1.084       .  S
C386        C391   1.484       .  S
C386        C387   1.410       .  A
C387        C388   1.402       .  A
C387        N392   1.429       .  S
C388        C389   1.402       .  A
C388        H393   1.078       .  S
C389        C390   1.416       .  A
C390        N394   1.431       .  S
C391        C396   1.411       .  A
C391        C400   1.402       .  A
N392        O407   1.262       .  A
N392        O408   1.262       .  A
N394        O405   1.261       .  A
N394        O406   1.262       .  A
C396        C397   1.403       .  A
C396        N401   1.429       .  S
C397        C398   1.403       .  A
C397        H402   1.084       .  S
C398        C399   1.411       .  A
C399        C400   1.400       .  A
C399        N403   1.428       .  S
C400        H404   1.084       .  S
N401        O411   1.262       .  A
N401        O412   1.262       .  A
N403        O409   1.262       .  A
N403        O410   1.262       .  A
C413        C414   1.402       .  A
C413        C418   1.401       .  A
C413        H423   1.084   1_545  S
C414        C971   1.481   1_545  S
C414        C415   1.409       .  A
C415        C416   1.399       .  A
C415        N420   1.429       .  S
C416        C417   1.401       .  A
C416        H421   1.079       .  S
C417        C418   1.410       .  A
C418        N422   1.429       .  S
C419        C966   1.491       .  S
C419        C424   1.410       .  A
C419        C428   1.405       .  A
N420        O435   1.262       .  A
N420        O436   1.262       .  A
N422        O433   1.262       .  A
N422        O434   1.262       .  A
C424        C425   1.400       .  A
C424        N981   1.429       .  S
C425        C426   1.407       .  A
C425        H430   1.084       .  S
C426        C427   1.416       .  A
C427        C428   1.404       .  A
C427        N431   1.429       .  S
C428        H432   1.084       .  S
N429        C976   1.429       .  S
N429        O440   1.262       .  A
N429        O991   1.262       .  A
N431        O437   1.262       .  A
N431        O438   1.262       .  A
O439        N981   1.262       .  A
C441        C442   1.404       .  A
C441        C446   1.402       .  A
C441        H451   1.083       .  S
C442        C447   1.493       .  S
C442        C443   1.411       .  A
C443        C444   1.404       .  A
C443        N448   1.429       .  S
C444        C445   1.408       .  A
C444        H449   1.083       .  S
C445        C446   1.416       .  A
C446        N450   1.429       .  S
C447        C452   1.412       .  A
C447        C456   1.405       .  A
N448        O463   1.262       .  A
N448        O464   1.262       .  A
N450        O461   1.262       .  A
N450        O462   1.262       .  A
C452        C453   1.401       .  A
C452        N457   1.429       .  S
C453        C454   1.403       .  A
C453        H458   1.084       .  S
C454        C455   1.413       .  A
C455        C456   1.405       .  A
C455        N459   1.428       .  S
C456        H460   1.083       .  S
N457        O467   1.262       .  A
N457        O468   1.262       .  A
N459        O465   1.262       .  A
N459        O466   1.262       .  A
C469        C470   1.406       .  A
C469        C474   1.406       .  A
C469        H479   1.083       .  S
C470       C1027   1.482       .  S
C470        C471   1.408       .  A
C471        C472   1.391       .  A
C471        N476   1.430       .  S
C472        C473   1.402       .  A
C472        H477   1.084       .  S
C473        C474   1.410       .  A
C474        N478   1.428       .  S
C475       C1022   1.487   1_545  S
C475        C480   1.411       .  A
C475        C484   1.403       .  A
N476        O491   1.262       .  A
N476        O492   1.262       .  A
N478        O489   1.262       .  A
N478        O490   1.261       .  A
C480        C481   1.405       .  A
C480        N485   1.429   1_545  S
C481        C482   1.406       .  A
C481        H486   1.084       .  S
C482        C483   1.410       .  A
C483        C484   1.397       .  A
C483        N487   1.428       .  S
C484        H488   1.084       .  S
N485        O495   1.262       .  A
N485       O1048   1.262       .  A
N487        O493   1.261       .  A
N487        O494   1.262       .  A
O496       N1037   1.262       .  A
C497        C498   1.401       .  A
C497        C502   1.400       .  A
C497        H507   1.084       .  S
C498        C503   1.480   1_556  S
C498        C499   1.406       .  A
C499        C500   1.399       .  A
C499        N504   1.429   1_556  S
C500        C501   1.407       .  A
C500        H505   1.083       .  S
C501        C502   1.418       .  A
C502        N506   1.429       .  S
C503        C508   1.408       .  A
C503        C512   1.404       .  A
N504        O519   1.262   1_554  A
N504        O520   1.262       .  A
N506        O517   1.262       .  A
N506        O518   1.261       .  A
C508        C509   1.398       .  A
C508        N513   1.429       .  S
C509        C510   1.403       .  A
C509        H514   1.084       .  S
C510        C511   1.410       .  A
C511        C512   1.401       .  A
C511        N515   1.430       .  S
C512        H516   1.084   1_554  S
N513        O523   1.262       .  A
N513        O524   1.262       .  A
N515        O521   1.262       .  A
N515        O522   1.262       .  A
C525        C526   1.405       .  A
C525        C530   1.403       .  A
C525        H535   1.083   1_554  S
C526       C1083   1.491   1_544  S
C526        C527   1.412       .  A
C527        C528   1.401       .  A
C527       N1084   1.429   1_545  S
C528        C529   1.403       .  A
C528        H533   1.084       .  S
C529        C530   1.412       .  A
C530        N534   1.429       .  S
C531       C1078   1.491   1_556  S
C531        C536   1.409       .  A
C531        C540   1.404       .  A
N532       C1079   1.429       .  S
N532        O547   1.262       .  A
N532        O548   1.262       .  A
N534        O545   1.262       .  A
N534        O546   1.262       .  A
C536        C537   1.403       .  A
C536        N541   1.429       .  S
C537        C538   1.408       .  A
C537        H542   1.083       .  S
C538        C539   1.417       .  A
C539        C540   1.404       .  A
C539        N543   1.430       .  S
C540        H544   1.084       .  S
N541        O551   1.262       .  A
N541       O1104   1.262   1_556  A
N543        O549   1.262       .  A
N543        O550   1.262       .  A
O552       N1093   1.262   1_554  A
O553       Cu561   1.995       .  S
O553        C563   1.276       .  A
O554       Cu561   2.008       .  S
O554        C564   1.277       .  A
O555       Cu561   2.021       .  S
O555        C565   1.281       .  A
O556       Cu561   2.022       .  S
O556        C566   1.279       .  A
O557       Cu562   2.013       .  S
O557        C566   1.278       .  A
O558       Cu562   2.018       .  S
O558        C565   1.278       .  A
O559       Cu562   2.005       .  S
O559        C564   1.278       .  A
O560       Cu562   2.009       .  S
O560        C563   1.278       .  A
Cu561      Cu562   2.370       .  S
C563       C1062   1.473       .  S
C564       C1034   1.478       .  S
C565        C997   1.495       .  S
C566       C1081   1.481       .  S
C567        C568   1.534       .  S
C567        C573   1.544       .  S
C567        C571   1.543       .  S
C567        C885   1.547       .  S
C568        H575   1.086       .  S
C568        C569   1.366       .  D
C569        C570   1.542       .  S
C569        C969   1.491       .  S
C570        C574   1.545       .  S
C570        C572   1.537       .  S
C570        H576   1.103       .  S
C571        H577   1.081       .  S
C571        C572   1.360       .  D
C572        C941   1.483       .  S
C573        H578   1.084       .  S
C573        C574   1.379       .  D
C574        C913   1.503       .  S
O579       Cu587   2.000       .  S
O579        C589   1.278       .  A
O580       Cu587   2.005       .  S
O580        C590   1.277       .  A
O581       Cu587   2.013       .  S
O581        C591   1.279       .  A
O582       Cu587   2.010       .  S
O582        C592   1.278       .  A
O583       Cu588   2.017       .  S
O583        C592   1.279       .  A
O584       Cu588   2.018       .  S
O584        C591   1.279       .  A
O585       Cu588   2.005       .  S
O585        C590   1.279       .  A
O586       Cu588   2.011       .  S
O586        C589   1.277       .  A
Cu587      Cu588   2.367       .  S
C589        C978   1.483       .  S
C590       C1053   1.485       .  S
C591       C1090   1.492       .  S
C592        C950   1.487       .  S
C593        C594   1.536       .  S
C593        C599   1.537       .  S
C593        C597   1.543       .  S
C593        C866   1.542       .  S
C594        H601   1.086       .  S
C594        C595   1.367       .  D
C595        C596   1.542       .  S
C595       C1006   1.494       .  S
C596        C600   1.543       .  S
C596        C598   1.536       .  S
C596        H602   1.107       .  S
C597        H603   1.080       .  S
C597        C598   1.364       .  D
C598       C1025   1.485       .  S
C599        H604   1.084       .  S
C599        C600   1.369       .  D
C600        C838   1.486       .  S
O605       Cu613   2.006       .  S
O605        C615   1.277       .  A
O606       Cu613   2.009       .  S
O606        C616   1.278       .  A
O607       Cu613   2.019       .  S
O607        C617   1.279       .  A
O608       Cu613   2.011       .  S
O608        C618   1.279       .  A
O609       Cu614   2.013       .  S
O609       C1722   1.278       .  A
O610       Cu614   2.002       .  S
O610       C1721   1.278       .  A
O611       Cu614   2.020       .  S
O611       C1720   1.279       .  A
O612       Cu614   2.019       .  S
O612       C1719   1.280       .  A
Cu613     Cu1718   2.368   1_455  S
Cu614     Cu1717   2.368       .  S
C615       O1716   1.280   1_455  A
C615        C782   1.490       .  S
C616       O1715   1.279   1_455  A
C616        C754   1.480       .  S
C617       O1714   1.278   1_455  A
C617        C717   1.490       .  S
C618       O1713   1.278   1_455  A
C618        C810   1.484       .  S
O619       Cu627   2.002       .  S
O619        C629   1.277       .  A
O620       Cu627   2.005       .  S
O620        C630   1.277       .  A
O621       Cu627   2.012       .  S
O621        C631   1.279       .  A
O622       Cu627   1.996       .  S
O622        C632   1.277       .  A
O623       Cu628   2.014       .  S
O623        C632   1.278       .  A
O624       Cu628   2.012       .  S
O624        C631   1.278       .  A
O625       Cu628   2.015       .  S
O625        C630   1.279       .  A
O626       Cu628   2.010       .  S
O626        C629   1.277       .  A
Cu627      Cu628   2.370       .  S
C629        C689   1.474       .  S
C630        C726   1.484       .  S
C631        C745   1.490       .  S
C632        C661   1.482       .  S
C633        C634   1.533       .  S
C633       C1743   1.537       .  S
C633        C637   1.547       .  S
C633        C857   1.540       .  S
C634        H641   1.083       .  S
C634       C1739   1.367       .  D
C635        C636   1.542       .  S
C635       C1738   1.367   1_455  D
C635        C698   1.493       .  S
C636        C640   1.545       .  S
C636        C638   1.533       .  S
C636        H642   1.109       .  S
C637        H643   1.081       .  S
C637       C1742   1.365       .  D
C638       C1741   1.365   1_455  D
C638        C670   1.483       .  S
C639       C1737   1.537   1_455  S
C639        H644   1.084       .  S
C639        C640   1.367       .  D
C640        C829   1.487       .  S
C645        C646   1.539       .  S
C645        C651   1.542       .  S
C645        C649   1.547       .  S
C645        C894   1.546       .  S
C646        H653   1.086       .  S
C646        C647   1.368       .  D
C647       C1752   1.539       .  S
C647        C773   1.491       .  S
C648       C1751   1.539       .  S
C648        C652   1.538       .  S
C648       C1754   1.537       .  S
C648        H654   1.109       .  S
C649        H655   1.080       .  S
C649        C650   1.365       .  D
C650       C1752   1.537       .  S
C650        C801   1.484       .  S
C651        H656   1.085       .  S
C651       C1756   1.365       .  D
C652       C1755   1.365       .  D
C652        C922   1.478       .  S
C657        C658   1.399       .  A
C657        C662   1.402       .  A
C657        H667   1.084       .  S
C658       C1763   1.405       .  A
C659       C1762   1.405       .  A
C659       C1764   1.395       .  A
C659        N664   1.429       .  S
C660       C1763   1.395       .  A
C660        C661   1.406       .  A
C660       H1769   1.084   1_455  S
C661        C662   1.416       .  A
C662        N666   1.428       .  S
C663        C668   1.407       .  A
C663        C672   1.402       .  A
N664        O679   1.262       .  A
H665       C1764   1.084       .  S
N666        O677   1.262       .  A
N666        O678   1.262       .  A
C668        C669   1.399       .  A
C669        C670   1.404       .  A
C669        H674   1.084       .  S
C670        C671   1.411       .  A
C671        C672   1.401       .  A
C671        N675   1.429       .  S
C672       H1780   1.084       .  S
N673        O683   1.262       .  A
N673        O684   1.262       .  A
N675        O681   1.262       .  A
N675       O1786   1.261       .  A
H676       C1776   1.084       .  S
O682       N1779   1.261       .  A
C685        C686   1.402       .  A
C685        C690   1.396       .  A
C685        H695   1.084   1_455  S
C686        C691   1.479       .  S
C686        C687   1.411       .  A
C687        C688   1.403       .  A
C687        N692   1.431       .  S
C688        C689   1.404       .  A
C688        H693   1.084       .  S
C689        C690   1.410       .  A
C690        N694   1.429   1_455  S
C691        C696   1.408       .  A
C691        C700   1.399   1_455  A
N692        O707   1.262       .  A
N692        O708   1.262       .  A
N694        O705   1.262   1_655  A
N694        O706   1.262       .  A
C696        C697   1.402       .  A
C696        N701   1.430       .  S
C697        C698   1.406       .  A
C697        H702   1.077       .  S
C698        C699   1.417   1_455  A
C699        C700   1.397       .  A
C699       N1807   1.430       .  S
C700        H704   1.084       .  S
N701        O711   1.262       .  A
N701        O712   1.262       .  A
N703       C1803   1.430       .  S
N703        O709   1.261       .  A
N703        O710   1.262       .  A
C713        C714   1.404       .  A
C713        C718   1.401       .  A
C713        H723   1.084       .  S
C714       C1819   1.408   1_455  A
C715       C1818   1.408       .  A
C715        C716   1.400       .  A
C715        N720   1.429   1_565  S
C716       C1821   1.408       .  A
C716        H721   1.083       .  S
C717       C1820   1.408   1_455  A
C717        C718   1.415       .  A
C718        N722   1.429       .  S
C719        C724   1.410       .  A
C719        C728   1.403   1_455  A
N720        O735   1.262   1_545  A
N722        O733   1.262       .  A
N722        O734   1.262       .  A
C724        C725   1.400       .  A
C724        N729   1.429       .  S
C725        C726   1.405       .  A
C725        H730   1.084       .  S
C726        C727   1.414   1_455  A
C727        C728   1.401       .  A
C727       N1835   1.429       .  S
C728       H1284   1.084       .  S
N729        O739   1.262       .  A
N729        O740   1.262       .  A
N731       C1831   1.429       .  S
N731       O1841   1.262       .  A
H732       C1280   1.083   1_565  S
O737       N1835   1.262       .  A
C741        C742   1.404       .  A
C741        C746   1.401       .  A
C741        H751   1.083       .  S
C742        C747   1.491       .  S
C742       C1847   1.411   1_455  A
C743       C1846   1.411       .  A
C743        C744   1.402       .  A
C743        N748   1.429       .  S
C744       C1849   1.407       .  A
C744        H749   1.083       .  S
C745       C1848   1.407   1_455  A
C745        C746   1.415       .  A
C746        N750   1.429       .  S
C747        C752   1.412       .  A
C747       C1860   1.406   1_455  A
N748        O763   1.262       .  A
N748        O764   1.262       .  A
N750        O761   1.262       .  A
N750        O762   1.262       .  A
C752        C753   1.400       .  A
C752        N757   1.430       .  S
C753        C754   1.402       .  A
C753        H758   1.084       .  S
C754       C1859   1.411   1_455  A
C755       C1858   1.411       .  A
C755        C756   1.404       .  A
C755        N759   1.429       .  S
C756       C1851   1.406       .  A
C756        H760   1.083       .  S
N757        O767   1.262       .  A
N757        O768   1.262       .  A
N759        O765   1.262       .  A
N759        O766   1.262       .  A
C769        C770   1.404       .  A
C769        C774   1.404       .  A
C769        H779   1.084   1_455  S
C770       C1875   1.410       .  A
C771       C1874   1.410       .  A
C771        C772   1.402       .  A
C771        N776   1.429       .  S
C772       C1877   1.405       .  A
C772        H777   1.084       .  S
C773       C1876   1.405       .  A
C773        C774   1.413       .  A
C774        N778   1.428       .  S
C775        C780   1.410   1_455  A
C775       C1888   1.403       .  A
N776        O791   1.262       .  A
N776        O792   1.262       .  A
N778        O789   1.261       .  A
N778        O790   1.262   1_455  A
C780        C781   1.402       .  A
C781        C782   1.407   1_655  A
C781        H786   1.083       .  S
C782       C1887   1.417       .  A
C783       C1886   1.417       .  A
C783        C784   1.401       .  A
C783        N787   1.429       .  S
C784       C1879   1.403       .  A
C784        H788   1.084       .  S
N785        O795   1.262       .  A
N785        O796   1.262       .  A
N787        O793   1.262       .  A
N787        O794   1.262       .  A
C797       C1902   1.405       .  A
C797        C802   1.406       .  A
C797        H807   1.083       .  S
C798        C803   1.486       .  S
C798       C1901   1.405   1_455  A
C798        C799   1.409       .  A
C799        C800   1.396       .  A
C799        N804   1.429       .  S
C800        C801   1.402       .  A
C800        H805   1.084       .  S
C801       C1906   1.410   1_455  A
C802       C1905   1.410       .  A
C802        N806   1.428       .  S
C803       C1912   1.409   1_455  A
C803        C812   1.403       .  A
N804        O819   1.262       .  A
N804        O820   1.262       .  A
N806        O817   1.262       .  A
N806        O818   1.262       .  A
C808       C1907   1.409       .  A
C808        C809   1.405       .  A
C808        N813   1.429       .  S
C809       C1914   1.407       .  A
C809        H814   1.084       .  S
C810       C1913   1.407   1_455  A
C810        C811   1.411       .  A
C811        C812   1.398       .  A
C811        N815   1.429       .  S
C812        H816   1.084       .  S
N813        O823   1.262       .  A
N813        O824   1.262       .  A
N815        O821   1.262       .  A
N815        O822   1.262       .  A
C825        C826   1.401       .  A
C825        C830   1.403       .  A
C825        H835   1.084       .  S
C826        C831   1.478       .  S
C826        C827   1.406       .  A
C827        C828   1.400       .  A
C827        N832   1.429       .  S
C828        C829   1.402       .  A
C828        H833   1.077       .  S
C829        C830   1.414       .  A
C830        N834   1.429       .  S
C831        C836   1.407       .  A
C831        C840   1.400       .  A
N832        O847   1.262       .  A
N832        O848   1.262       .  A
N834        O845   1.262       .  A
N834        O846   1.262       .  A
C836        C837   1.402       .  A
C836        N841   1.428       .  S
C837        C838   1.404       .  A
C837        H842   1.084       .  S
C838        C839   1.415       .  A
C839        C840   1.400       .  A
C839        N843   1.430       .  S
C840        H844   1.084       .  S
N841        O851   1.262       .  A
N841        O852   1.262       .  A
N843        O849   1.261       .  A
N843        O850   1.262       .  A
C853        C854   1.398       .  A
C853        C858   1.403       .  A
C853        H863   1.084       .  S
C854        C859   1.479       .  S
C854        C855   1.403       .  A
C855        C856   1.399       .  A
C855        N860   1.430       .  S
C856        C857   1.414       .  A
C856        H861   1.076       .  S
C857        C858   1.423       .  A
C858        N862   1.431       .  S
C859        C864   1.402       .  A
C859        C868   1.399       .  A
N860        O875   1.262       .  A
N860        O876   1.262       .  A
N862        O873   1.262       .  A
N862       O1978   1.262       .  A
C864        C865   1.397       .  A
C864        N869   1.430       .  S
C865        C866   1.415       .  A
C865        H870   1.075       .  S
C866        C867   1.423       .  A
C867        C868   1.405       .  A
C867        N871   1.430       .  S
C868        H872   1.084       .  S
N869        O879   1.262       .  A
N869        O880   1.262       .  A
N871        O877   1.262       .  A
N871        O878   1.262       .  A
O874       N1966   1.262       .  A
C881        C882   1.401       .  A
C881        C886   1.408       .  A
C881        H891   1.084       .  S
C882        C887   1.484       .  S
C882        C883   1.401       .  A
C883        C884   1.399       .  A
C883        N888   1.429       .  S
C884        C885   1.416       .  A
C884        H889   1.077       .  S
C885        C886   1.423       .  A
C886        N890   1.430       .  S
C887        C892   1.402       .  A
C887        C896   1.399       .  A
N888        O903   1.262       .  A
N888        O904   1.262       .  A
N890        O901   1.262       .  A
N890        O902   1.261       .  A
C892        C893   1.402       .  A
C892        N897   1.429       .  S
C893        C894   1.416       .  A
C893        H898   1.075       .  S
C894        C895   1.424       .  A
C895        C896   1.406       .  A
C895        N899   1.431       .  S
C896        H900   1.084       .  S
N897        O907   1.262       .  A
N897        O908   1.262       .  A
N899        O905   1.262       .  A
N899        O906   1.262       .  A
C909        C910   1.403       .  A
C909        C914   1.404       .  A
C909        H919   1.083       .  S
C910        C915   1.493       .  S
C910        C911   1.411       .  A
C911        C912   1.401       .  A
C911        N916   1.429       .  S
C912        C913   1.408       .  A
C912        H917   1.083       .  S
C913        C914   1.421       .  A
C914        N918   1.429       .  S
C915        C920   1.415       .  A
C915        C924   1.406       .  A
N916        O931   1.262       .  A
N916        O932   1.262       .  A
N918        O929   1.262       .  A
N918        O930   1.260       .  A
C920        C921   1.403       .  A
C920        N925   1.430       .  S
C921        C922   1.400       .  A
C921        H926   1.083       .  S
C922        C923   1.406       .  A
C923        C924   1.401       .  A
C923        N927   1.429       .  S
C924        H928   1.083       .  S
N925        O935   1.262       .  A
N925        O936   1.262       .  A
N927        O933   1.262       .  A
N927        O934   1.262       .  A
C937        C938   1.402       .  A
C937        C942   1.400       .  A
C937        H947   1.084       .  S
C938        C943   1.484       .  S
C938        C939   1.411       .  A
C939        C940   1.403       .  A
C939        N944   1.431       .  S
C940        C941   1.401       .  A
C940        H945   1.079       .  S
C941        C942   1.413       .  A
C942        N946   1.432       .  S
C943        C948   1.409       .  A
C943        C952   1.402       .  A
N944        O959   1.262       .  A
N944        O960   1.262       .  A
N946        O957   1.261       .  A
N946        O958   1.262       .  A
C948        C949   1.403       .  A
C948        N953   1.430       .  S
C949        C950   1.407       .  A
C949        H954   1.084       .  S
C950        C951   1.414       .  A
C951        C952   1.400       .  A
C951        N955   1.429       .  S
C952        H956   1.084       .  S
N953        O963   1.262       .  A
N953        O964   1.262       .  A
N955        O961   1.262       .  A
N955        O962   1.262       .  A
C965        C966   1.405       .  A
C965        C970   1.404       .  A
C965        H975   1.083       .  S
C966        C967   1.411       .  A
C967        C968   1.401       .  A
C967        N972   1.429       .  S
C968        C969   1.402       .  A
C968        H973   1.078       .  S
C969        C970   1.413       .  A
C970        N974   1.430       .  S
C971        C976   1.407       .  A
C971        C980   1.403       .  A
N972        O987   1.262       .  A
N972        O988   1.262       .  A
N974        O985   1.262       .  A
N974        O986   1.262       .  A
C976        C977   1.397       .  A
C977        C978   1.405       .  A
C977        H982   1.084       .  S
C978        C979   1.415       .  A
C979        C980   1.402       .  A
C979        N983   1.429       .  S
C980        H984   1.084   1_565  S
N981        O992   1.262       .  A
N983        O989   1.262       .  A
N983        O990   1.262       .  A
C993        C994   1.405       .  A
C993        C998   1.404       .  A
C993       H1003   1.083       .  S
C994        C999   1.495       .  S
C994        C995   1.411       .  A
C995        C996   1.403       .  A
C995       N1000   1.429       .  S
C996        C997   1.408       .  A
C996       H1001   1.083       .  S
C997        C998   1.417       .  A
C998       N1002   1.429       .  S
C999       C1004   1.412       .  A
C999       C1008   1.406       .  A
N1000      O1015   1.262       .  A
N1000      O1016   1.262       .  A
N1002      O1013   1.262       .  A
N1002      O1014   1.262       .  A
C1004      C1005   1.401       .  A
C1004      N1009   1.429       .  S
C1005      C1006   1.405       .  A
C1005      H1010   1.084       .  S
C1006      C1007   1.414       .  A
C1007      C1008   1.406       .  A
C1007      N1011   1.428       .  S
C1008      H1012   1.083       .  S
N1009      O1019   1.262       .  A
N1009      O1020   1.262       .  A
N1011      O1017   1.261       .  A
N1011      O1018   1.262       .  A
C1021      C1022   1.407       .  A
C1021      C1026   1.407       .  A
C1021      H1031   1.083       .  S
C1022      C1023   1.410       .  A
C1023      C1024   1.392       .  A
C1023      N1028   1.430       .  S
C1024      C1025   1.402       .  A
C1024      H1029   1.084       .  S
C1025      C1026   1.410       .  A
C1026      N1030   1.428       .  S
C1027      C1032   1.408       .  A
C1027      C1036   1.403       .  A
N1028      O1043   1.262       .  A
N1028      O1044   1.262       .  A
N1030      O1041   1.262       .  A
N1030      O1042   1.261       .  A
C1032      C1033   1.402       .  A
C1032      N1037   1.429       .  S
C1033      C1034   1.406       .  A
C1033      H1038   1.084       .  S
C1034      C1035   1.410       .  A
C1035      C1036   1.397       .  A
C1035      N1039   1.429       .  S
C1036      H1040   1.084       .  S
N1037      O1047   1.262       .  A
N1039      O1045   1.262       .  A
N1039      O1046   1.262       .  A
C1049      C1050   1.402       .  A
C1049      C1054   1.401       .  A
C1049      H1059   1.084       .  S
C1050      C1055   1.482   1_556  S
C1050      C1051   1.408       .  A
C1051      C1052   1.397       .  A
C1051      N1056   1.429       .  S
C1052      C1053   1.406       .  A
C1052      H1057   1.083       .  S
C1053      C1054   1.416       .  A
C1054      N1058   1.429       .  S
C1055      C1060   1.410       .  A
C1055      C1064   1.404       .  A
N1056      O1071   1.262       .  A
N1056      O1072   1.262   1_556  A
N1058      O1069   1.262       .  A
N1058      O1070   1.262       .  A
C1060      C1061   1.398       .  A
C1060      N1065   1.429       .  S
C1061      C1062   1.403       .  A
C1061      H1066   1.084       .  S
C1062      C1063   1.410       .  A
C1063      C1064   1.399       .  A
C1063      N1067   1.429       .  S
C1064      H1068   1.083   1_554  S
N1065      O1075   1.262       .  A
N1065      O1076   1.262       .  A
N1067      O1073   1.262       .  A
N1067      O1074   1.262       .  A
C1077      C1078   1.405       .  A
C1077      C1082   1.404       .  A
C1077      H1087   1.083   1_554  S
C1078      C1079   1.411       .  A
C1079      C1080   1.402       .  A
C1080      C1081   1.403       .  A
C1080      H1085   1.084       .  S
C1081      C1082   1.412       .  A
C1082      N1086   1.430       .  S
C1083      C1088   1.410       .  A
C1083      C1092   1.404       .  A
N1084      O1099   1.262       .  A
N1084      O1100   1.262       .  A
N1086      O1097   1.262       .  A
N1086      O1098   1.262       .  A
C1088      C1089   1.402       .  A
C1088      N1093   1.429       .  S
C1089      C1090   1.407       .  A
C1089      H1094   1.083       .  S
C1090      C1091   1.416       .  A
C1091      C1092   1.403       .  A
C1091      N1095   1.429       .  S
C1092      H1096   1.084       .  S
N1093      O1103   1.262       .  A
N1095      O1101   1.262       .  A
N1095      O1102   1.262       .  A
O1105     Cu1113   2.001       .  S
O1105      C1115   1.277       .  A
O1106     Cu1113   2.016       .  S
O1106      C1116   1.278       .  A
O1107     Cu1113   2.020       .  S
O1107      C1117   1.280       .  A
O1108     Cu1113   2.020       .  S
O1108      C1118   1.279       .  A
O1109     Cu1114   2.010       .  S
O1109      C1118   1.278       .  A
O1110     Cu1114   2.015       .  S
O1110      C1117   1.278       .  A
O1111     Cu1114   2.007       .  S
O1111      C1116   1.278       .  A
O1112     Cu1114   2.010       .  S
O1112      C1115   1.278       .  A
Cu1113    Cu1114   2.370       .  S
C1115      C1614   1.473       .  S
C1116      C1586   1.480       .  S
C1117      C1549   1.493       .  S
C1118      C1633   1.482       .  S
C1119      C1120   1.535       .  S
C1119      C1125   1.542       .  S
C1119      C1123   1.548       .  S
C1119      C1437   1.547       .  S
C1120      H1127   1.086       .  S
C1120      C1121   1.362       .  D
C1121      C1122   1.537       .  S
C1121      C1521   1.481       .  S
C1122      C1126   1.541       .  S
C1122      C1124   1.537       .  S
C1122      H1128   1.107       .  S
C1123      H1129   1.077       .  S
C1123      C1124   1.365       .  D
C1124      C1493   1.491       .  S
C1125      H1130   1.085       .  S
C1125      C1126   1.375       .  D
C1126      C1465   1.494       .  S
O1131     Cu1139   2.010       .  S
O1131      C1141   1.279       .  A
O1132     Cu1139   2.001       .  S
O1132      C1142   1.276       .  A
O1133     Cu1139   2.019       .  S
O1133      C1143   1.280       .  A
O1134     Cu1139   2.014       .  S
O1134      C1144   1.278       .  A
O1135     Cu1140   2.015       .  S
O1135      C1144   1.278       .  A
O1136     Cu1140   2.017       .  S
O1136      C1143   1.278       .  A
O1137     Cu1140   2.016       .  S
O1137      C1142   1.280       .  A
O1138     Cu1140   2.018       .  S
O1138      C1141   1.278       .  A
Cu1139    Cu1140   2.367       .  S
C1141      C1530   1.491       .  S
C1142      C1605   1.487       .  S
C1143      C1642   1.494       .  S
C1144      C1502   1.479       .  S
C1145      C1146   1.538       .  S
C1145      C1151   1.536       .  S
C1145      C1149   1.543       .  S
C1145      C1418   1.541       .  S
C1146      H1153   1.086       .  S
C1146      C1147   1.367       .  D
C1147      C1148   1.539       .  S
C1147      C1558   1.490       .  S
C1148      C1152   1.543       .  S
C1148      C1150   1.534       .  S
C1148      H1154   1.108       .  S
C1149      H1155   1.079       .  S
C1149      C1150   1.363       .  D
C1150      C1577   1.481       .  S
C1151      H1156   1.084       .  S
C1151      C1152   1.368       .  D
C1152      C1390   1.483       .  S
O1157     Cu1165   2.019       .  S
O1157      C1167   1.279       .  A
O1158     Cu1165   2.017       .  S
O1158      C1168   1.279       .  A
O1159     Cu1165   2.001       .  S
O1159      C1169   1.277       .  A
O1160     Cu1165   1.998       .  S
O1160      C1170   1.277       .  A
O1161     Cu1166   2.030       .  S
O1162     Cu1166   2.017       .  S
O1163     Cu1166   2.015       .  S
O1164     Cu1166   2.019       .  S
C1167      C1334   1.496       .  S
C1168      C1306   1.481       .  S
C1169      C1269   1.484       .  S
C1170      C1362   1.483       .  S
O1171     Cu1179   2.009       .  S
O1171      C1181   1.278       .  A
O1172     Cu1179   2.011       .  S
O1172      C1182   1.277       .  A
O1173     Cu1179   2.021       .  S
O1173      C1183   1.280       .  A
O1174     Cu1179   2.004       .  S
O1174      C1184   1.278       .  A
O1175     Cu1180   2.019       .  S
O1175      C1184   1.279       .  A
O1176     Cu1180   2.012       .  S
O1176      C1183   1.279       .  A
O1177     Cu1180   2.008       .  S
O1177      C1182   1.278       .  A
O1178     Cu1180   2.002       .  S
O1178      C1181   1.276       .  A
Cu1179    Cu1180   2.371       .  S
C1181      C1241   1.474       .  S
C1182      C1278   1.477       .  S
C1183      C1297   1.492       .  S
C1184      C1213   1.481       .  S
C1185      C1186   1.534       .  S
C1185      C1189   1.546       .  S
C1185      C1409   1.540       .  S
C1186      H1193   1.084       .  S
C1187      C1188   1.541       .  S
C1187      C1250   1.491       .  S
C1188      C1192   1.543       .  S
C1188      C1190   1.532       .  S
C1188      H1194   1.108       .  S
C1189      H1195   1.080       .  S
C1190      C1222   1.481       .  S
C1191      H1196   1.085       .  S
C1191      C1192   1.367       .  D
C1192      C1381   1.488       .  S
C1197      C1198   1.540       .  S
C1197      C1203   1.538       .  S
C1197      C1201   1.548       .  S
C1197      C1446   1.545       .  S
C1198      H1205   1.086       .  S
C1198      C1199   1.369       .  D
C1199      C1325   1.489       .  S
C1200      C1204   1.537       .  S
C1200      H1206   1.107   1_455  S
C1201      H1207   1.080       .  S
C1201      C1202   1.366       .  D
C1202      C1353   1.489       .  S
C1203      H1208   1.085       .  S
C1204      C1474   1.473   1_455  S
C1209      C1210   1.402       .  A
C1209      C1214   1.404       .  A
C1209      H1219   1.084       .  S
C1210      C1767   1.480   1_545  S
C1211      N1216   1.429   1_445  S
C1212      C1213   1.404       .  A
C1213      C1214   1.414       .  A
C1214      N1218   1.428       .  S
C1215      C1762   1.472       .  S
C1215      C1220   1.404       .  A
C1215      C1224   1.400       .  A
N1216      O1231   1.262       .  A
N1216      O1784   1.262       .  A
N1218      O1229   1.262       .  A
N1218      O1230   1.262       .  A
C1220      C1221   1.397       .  A
C1220      N1777   1.429       .  S
C1221      C1222   1.405       .  A
C1221      H1226   1.084       .  S
C1222      C1223   1.412       .  A
C1223      C1224   1.400       .  A
C1223      N1227   1.429       .  S
N1225      C1772   1.428   1_545  S
N1225      O1235   1.262       .  A
N1225      O1236   1.262       .  A
N1227      O1233   1.262       .  A
O1232      N1768   1.262       .  A
C1237      C1238   1.401       .  A
C1237      C1242   1.397       .  A
C1237      H1247   1.084       .  S
C1238      C1243   1.477       .  S
C1238      C1239   1.410       .  A
C1239      C1240   1.401       .  A
C1239      N1244   1.430       .  S
C1240      C1241   1.404       .  A
C1240      H1245   1.084       .  S
C1241      C1242   1.409       .  A
C1242      N1246   1.429       .  S
C1243      C1248   1.408       .  A
C1243      C1252   1.399       .  A
N1244      O1259   1.262       .  A
N1244      O1260   1.262       .  A
N1246      O1257   1.262       .  A
N1246      O1258   1.262       .  A
C1248      C1249   1.398       .  A
C1248      N1253   1.430       .  S
C1249      C1250   1.402       .  A
C1249      H1254   1.109       .  S
C1250      C1251   1.417       .  A
C1251      C1252   1.397       .  A
C1252      H1256   1.087       .  S
N1253      O1263   1.262       .  A
N1253      O1264   1.262       .  A
N1255      O1261   1.261       .  A
N1255      O1262   1.262       .  A
C1265      C1266   1.402       .  A
C1265      C1270   1.399       .  A
C1265      H1275   1.084       .  S
C1266      C1823   1.486       .  S
C1267      C1268   1.402       .  A
C1267      N1272   1.429       .  S
C1268      H1273   1.084       .  S
C1269      C1270   1.415       .  A
C1270      N1274   1.430       .  S
C1271      C1818   1.487   1_545  S
C1271      C1276   1.410       .  A
C1271      C1280   1.405       .  A
N1272      O1287   1.262       .  A
N1272      O1840   1.262       .  A
N1274      O1285   1.262       .  A
N1274      O1286   1.262       .  A
C1276      C1277   1.399       .  A
C1276      N1281   1.430       .  S
C1277      C1278   1.403       .  A
C1277      H1282   1.084       .  S
C1278      C1279   1.411       .  A
C1279      C1280   1.402       .  A
N1281      O1291   1.262       .  A
N1281      O1292   1.262       .  A
N1283      O1842   1.262       .  A
O1288      N1824   1.262       .  A
O1290      N1835   1.262       .  A
C1293      C1294   1.403       .  A
C1293      C1298   1.401       .  A
C1293      H1303   1.084       .  S
C1294      C1299   1.490       .  S
C1295      C1296   1.405       .  A
C1295      N1300   1.429       .  S
C1296      H1301   1.083       .  S
C1297      C1298   1.415       .  A
C1298      N1302   1.429       .  S
C1299      C1304   1.411       .  A
N1300      O1315   1.262       .  A
N1300      O1316   1.262       .  A
N1302      O1313   1.262       .  A
N1302      O1314   1.262       .  A
C1304      C1305   1.400       .  A
C1304      N1309   1.429       .  S
C1305      C1306   1.402       .  A
C1305      H1310   1.084       .  S
C1307      C1308   1.405       .  A
C1307      N1311   1.430       .  S
C1308      H1312   1.084       .  S
N1309      O1319   1.262       .  A
N1309      O1320   1.262       .  A
N1311      O1317   1.262       .  A
N1311      O1318   1.262       .  A
C1321      C1322   1.403       .  A
C1321      C1326   1.402       .  A
C1321      H1331   1.083       .  S
C1322      C1879   1.489   1_545  S
C1323      C1324   1.401       .  A
C1323      N1328   1.429   1_545  S
C1324      H1329   1.084       .  S
C1325      C1326   1.414       .  A
C1326      N1330   1.428       .  S
C1327      C1874   1.490       .  S
C1327      C1332   1.409       .  A
N1328      O1343   1.262       .  A
N1328      O1344   1.262       .  A
N1330      O1341   1.261       .  A
N1330      O1342   1.262       .  A
C1332      C1333   1.404       .  A
C1332      N1889   1.429       .  S
C1333      C1334   1.409       .  A
C1333      H1338   1.083       .  S
C1335      C1336   1.403       .  A
C1335      N1339   1.429       .  S
C1336      H1340   1.084       .  S
N1337      C1884   1.429       .  S
N1337      O1347   1.262   1_565  A
N1337      O1348   1.262       .  A
N1339      O1345   1.262       .  A
N1339      O1346   1.262       .  A
C1349      C1354   1.407       .  A
C1349      H1359   1.083       .  S
C1350      C1355   1.488       .  S
C1350      C1351   1.410       .  A
C1351      C1352   1.395       .  A
C1351      N1356   1.430       .  S
C1352      C1353   1.403       .  A
C1352      H1357   1.084       .  S
C1354      N1358   1.428       .  S
C1355      C1364   1.402       .  A
N1356      O1371   1.262       .  A
N1356      O1372   1.262       .  A
N1358      O1369   1.262       .  A
N1358      O1370   1.262       .  A
C1360      C1361   1.407       .  A
C1360      N1365   1.429       .  S
C1361      H1366   1.084       .  S
C1362      C1363   1.411       .  A
C1363      C1364   1.397       .  A
C1363      N1367   1.429       .  S
C1364      H1368   1.084       .  S
N1365      O1375   1.262       .  A
N1365      O1376   1.262       .  A
N1367      O1373   1.262       .  A
N1367      O1374   1.262       .  A
C1377      C1378   1.401       .  A
C1377      C1382   1.402       .  A
C1377      H1387   1.086       .  S
C1378      C1383   1.477       .  S
C1378      C1379   1.406       .  A
C1379      C1380   1.396       .  A
C1379      N1384   1.429       .  S
C1380      C1381   1.400       .  A
C1380      H1385   1.109       .  S
C1381      C1382   1.415       .  A
C1382      N1386   1.430       .  S
C1383      C1388   1.407       .  A
C1383      C1392   1.400       .  A
N1384      O1399   1.262       .  A
N1384      O1400   1.262       .  A
N1386      O1397   1.262       .  A
N1386      O1398   1.262       .  A
C1388      C1389   1.401       .  A
C1388      N1393   1.428       .  S
C1389      C1390   1.403       .  A
C1389      H1394   1.084       .  S
C1390      C1391   1.414       .  A
C1391      C1392   1.400       .  A
C1391      N1395   1.430       .  S
C1392      H1396   1.084       .  S
N1393      O1403   1.262       .  A
N1393      O1404   1.262       .  A
N1395      O1401   1.261       .  A
N1395      O1402   1.262       .  A
C1405      C1406   1.398       .  A
C1405      C1410   1.402       .  A
C1405      H1415   1.084       .  S
C1406      C1411   1.479       .  S
C1406      C1407   1.404       .  A
C1407      C1408   1.399       .  A
C1407      N1412   1.431       .  S
C1408      C1409   1.414       .  A
C1408      H1413   1.074       .  S
C1409      C1410   1.422       .  A
C1410      N1414   1.430       .  S
C1411      C1416   1.403       .  A
C1411      C1420   1.399       .  A
N1412      O1427   1.262       .  A
N1412      O1428   1.262       .  A
N1414      O1425   1.262       .  A
C1416      C1417   1.397       .  A
C1416      N1421   1.431       .  S
C1417      C1418   1.415       .  A
C1417      H1422   1.074       .  S
C1418      C1419   1.422       .  A
C1419      C1420   1.403       .  A
C1419      N1423   1.430       .  S
C1420      H1424   1.084       .  S
N1421      O1431   1.262       .  A
N1421      O1432   1.262       .  A
N1423      O1429   1.262       .  A
N1423      O1430   1.262       .  A
C1433      C1434   1.399       .  A
C1433      C1438   1.406       .  A
C1433      H1443   1.084       .  S
C1434      C1439   1.485       .  S
C1434      C1435   1.404       .  A
C1435      C1436   1.401       .  A
C1435      N1440   1.431       .  S
C1436      C1437   1.416       .  A
C1436      H1441   1.074       .  S
C1437      C1438   1.424       .  A
C1438      N1442   1.430       .  S
C1439      C1444   1.404       .  A
C1439      C1448   1.399       .  A
N1440      O1455   1.262       .  A
N1440      O1456   1.262       .  A
N1442      O1453   1.262       .  A
N1442      O1454   1.261       .  A
C1444      C1445   1.400       .  A
C1444      N1449   1.430       .  S
C1445      C1446   1.415       .  A
C1445      H1450   1.074       .  S
C1446      C1447   1.424       .  A
C1447      C1448   1.406       .  A
C1447      N1451   1.430       .  S
C1448      H1452   1.084       .  S
N1449      O1459   1.262       .  A
N1449      O1460   1.262       .  A
N1451      O1457   1.262       .  A
N1451      O1458   1.262       .  A
C1461      C1462   1.402       .  A
C1461      C1466   1.400       .  A
C1461      H1471   1.084       .  S
C1462      C1467   1.489       .  S
C1462      C1463   1.410       .  A
C1463      C1464   1.402       .  A
C1463      N1468   1.429       .  S
C1464      C1465   1.407       .  A
C1464      H1469   1.083       .  S
C1465      C1466   1.416       .  A
C1466      N1470   1.429       .  S
C1467      C1472   1.414       .  A
C1467      C1476   1.406       .  A
N1468      O1483   1.262       .  A
N1468      O1484   1.262       .  A
N1470      O1481   1.262       .  A
N1470      O1482   1.261       .  A
C1472      C1473   1.399       .  A
C1472      N1477   1.430       .  S
C1473      C1474   1.397       .  A
C1473      H1478   1.083       .  S
C1474      C1475   1.406       .  A
C1475      C1476   1.402       .  A
C1475      N1479   1.429       .  S
C1476      H1480   1.083       .  S
N1477      O1487   1.262       .  A
N1477      O1488   1.262       .  A
N1479      O1485   1.262       .  A
N1479      O1486   1.262       .  A
C1489      C1490   1.401       .  A
C1489      C1494   1.400       .  A
C1489      H1499   1.084       .  S
C1490      C1495   1.484       .  S
C1490      C1491   1.410       .  A
C1491      C1492   1.402       .  A
C1491      N1496   1.429       .  S
C1492      C1493   1.402       .  A
C1492      H1497   1.078       .  S
C1493      C1494   1.416       .  A
C1494      N1498   1.431       .  S
C1495      C1500   1.411       .  A
C1495      C1504   1.402       .  A
N1496      O1511   1.262       .  A
N1496      O1512   1.262       .  A
N1498      O1509   1.261       .  A
N1498      O1510   1.262       .  A
C1500      C1501   1.403       .  A
C1500      N1505   1.429       .  S
C1501      C1502   1.403       .  A
C1501      H1506   1.084       .  S
C1502      C1503   1.411       .  A
C1503      C1504   1.400       .  A
C1503      N1507   1.428       .  S
C1504      H1508   1.084       .  S
N1505      O1515   1.262       .  A
N1505      O1516   1.262       .  A
N1507      O1513   1.262       .  A
N1507      O1514   1.262       .  A
C1517      C1518   1.402       .  A
C1517      C1522   1.401       .  A
C1517      H1527   1.084   1_545  S
C1518      C2075   1.481   1_545  S
C1518      C1519   1.409       .  A
C1519      C1520   1.399       .  A
C1519      N1524   1.429       .  S
C1520      C1521   1.401       .  A
C1520      H1525   1.079       .  S
C1521      C1522   1.410       .  A
C1522      N1526   1.429       .  S
C1523      C2070   1.491       .  S
C1523      C1528   1.410       .  A
C1523      C1532   1.405       .  A
N1524      O1539   1.262       .  A
N1524      O1540   1.262       .  A
N1526      O1537   1.262       .  A
N1526      O1538   1.262       .  A
C1528      C1529   1.400       .  A
C1528      N2085   1.429       .  S
C1529      C1530   1.407       .  A
C1529      H1534   1.084       .  S
C1530      C1531   1.416       .  A
C1531      C1532   1.404       .  A
C1531      N1535   1.429       .  S
C1532      H1536   1.084       .  S
N1533      C2080   1.429       .  S
N1533      O2095   1.262       .  A
N1533      O1544   1.262       .  A
N1535      O1541   1.262       .  A
N1535      O1542   1.262       .  A
O1543      N2085   1.262       .  A
C1545      C1546   1.404       .  A
C1545      C1550   1.402       .  A
C1545      H1555   1.083       .  S
C1546      C1551   1.493       .  S
C1546      C1547   1.411       .  A
C1547      C1548   1.404       .  A
C1547      N1552   1.429       .  S
C1548      C1549   1.408       .  A
C1548      H1553   1.083       .  S
C1549      C1550   1.416       .  A
C1550      N1554   1.429       .  S
C1551      C1556   1.412       .  A
C1551      C1560   1.405       .  A
N1552      O1567   1.262       .  A
N1552      O1568   1.262       .  A
N1554      O1565   1.262       .  A
N1554      O1566   1.262       .  A
C1556      C1557   1.401       .  A
C1556      N1561   1.429       .  S
C1557      C1558   1.403       .  A
C1557      H1562   1.084       .  S
C1558      C1559   1.413       .  A
C1559      C1560   1.405       .  A
C1559      N1563   1.428       .  S
C1560      H1564   1.083       .  S
N1561      O1571   1.262       .  A
N1561      O1572   1.262       .  A
N1563      O1569   1.262       .  A
N1563      O1570   1.262       .  A
C1573      C1574   1.406       .  A
C1573      C1578   1.406       .  A
C1573      H1583   1.083       .  S
C1574      C2131   1.482       .  S
C1574      C1575   1.408       .  A
C1575      C1576   1.391       .  A
C1575      N1580   1.430       .  S
C1576      C1577   1.402       .  A
C1576      H1581   1.084       .  S
C1577      C1578   1.410       .  A
C1578      N1582   1.428       .  S
C1579      C2126   1.487   1_545  S
C1579      C1584   1.411       .  A
C1579      C1588   1.403       .  A
N1580      O1595   1.262       .  A
N1580      O1596   1.262       .  A
N1582      O1593   1.262       .  A
N1582      O1594   1.261       .  A
C1584      C1585   1.405       .  A
C1584      N1589   1.429   1_545  S
C1585      C1586   1.406       .  A
C1585      H1590   1.084       .  S
C1586      C1587   1.410       .  A
C1587      C1588   1.397       .  A
C1587      N1591   1.428       .  S
C1588      H1592   1.084       .  S
N1589      O1599   1.262       .  A
N1589      O2152   1.262       .  A
N1591      O1597   1.261       .  A
N1591      O1598   1.262       .  A
O1600      N2141   1.262       .  A
C1601      C1602   1.401       .  A
C1601      C1606   1.400       .  A
C1601      H1611   1.084       .  S
C1602      C1607   1.480   1_556  S
C1602      C1603   1.406       .  A
C1603      C1604   1.399       .  A
C1603      N1608   1.429   1_556  S
C1604      C1605   1.407       .  A
C1604      H1609   1.083       .  S
C1605      C1606   1.418       .  A
C1606      N1610   1.429       .  S
C1607      C1612   1.408       .  A
C1607      C1616   1.404       .  A
N1608      O1623   1.262   1_554  A
N1608      O1624   1.262       .  A
N1610      O1621   1.262       .  A
N1610      O1622   1.261       .  A
C1612      C1613   1.398       .  A
C1612      N1617   1.429       .  S
C1613      C1614   1.403       .  A
C1613      H1618   1.084       .  S
C1614      C1615   1.410       .  A
C1615      C1616   1.401       .  A
C1615      N1619   1.430       .  S
C1616      H1620   1.084   1_554  S
N1617      O1627   1.262       .  A
N1617      O1628   1.262       .  A
N1619      O1625   1.262       .  A
N1619      O1626   1.262       .  A
C1629      C1630   1.405       .  A
C1629      C1634   1.404       .  A
C1629      H1639   1.083   1_554  S
C1630      C2187   1.491   1_544  S
C1630      C1631   1.412       .  A
C1631      C1632   1.401       .  A
C1631      N2188   1.429   1_545  S
C1632      C1633   1.403       .  A
C1632      H1637   1.084       .  S
C1633      C1634   1.412       .  A
C1634      N1638   1.429       .  S
C1635      C2182   1.491   1_556  S
C1635      C1640   1.409       .  A
C1635      C1644   1.404       .  A
N1636      C2183   1.429       .  S
N1636      O1651   1.262       .  A
N1636      O1652   1.262       .  A
N1638      O1649   1.262       .  A
N1638      O1650   1.262       .  A
C1640      C1641   1.403       .  A
C1640      N1645   1.429       .  S
C1641      C1642   1.408       .  A
C1641      H1646   1.083       .  S
C1642      C1643   1.417       .  A
C1643      C1644   1.404       .  A
C1643      N1647   1.430       .  S
C1644      H1648   1.084       .  S
N1645      O1655   1.262       .  A
N1645      O2208   1.262   1_556  A
N1647      O1653   1.262       .  A
N1647      O1654   1.262       .  A
O1656      N2197   1.262   1_554  A
O1657     Cu1665   1.995       .  S
O1657      C1667   1.276       .  A
O1658     Cu1665   2.008       .  S
O1658      C1668   1.277       .  A
O1659     Cu1665   2.021       .  S
O1659      C1669   1.281       .  A
O1660     Cu1665   2.022       .  S
O1660      C1670   1.279       .  A
O1661     Cu1666   2.013       .  S
O1661      C1670   1.278       .  A
O1662     Cu1666   2.018       .  S
O1662      C1669   1.278       .  A
O1663     Cu1666   2.005       .  S
O1663      C1668   1.278       .  A
O1664     Cu1666   2.009       .  S
O1664      C1667   1.278       .  A
Cu1665    Cu1666   2.370       .  S
C1667      C2166   1.473       .  S
C1668      C2138   1.478       .  S
C1669      C2101   1.495       .  S
C1670      C2185   1.481       .  S
C1671      C1672   1.534       .  S
C1671      C1677   1.544       .  S
C1671      C1675   1.543       .  S
C1671      C1989   1.547       .  S
C1672      H1679   1.086       .  S
C1672      C1673   1.366       .  D
C1673      C1674   1.542       .  S
C1673      C2073   1.492       .  S
C1674      C1678   1.545       .  S
C1674      C1676   1.537       .  S
C1674      H1680   1.103       .  S
C1675      H1681   1.081       .  S
C1675      C1676   1.360       .  D
C1676      C2045   1.484       .  S
C1677      H1682   1.084       .  S
C1677      C1678   1.379       .  D
C1678      C2017   1.503       .  S
O1683     Cu1691   2.000       .  S
O1683      C1693   1.278       .  A
O1684     Cu1691   2.004       .  S
O1684      C1694   1.277       .  A
O1685     Cu1691   2.014       .  S
O1685      C1695   1.279       .  A
O1686     Cu1691   2.011       .  S
O1686      C1696   1.278       .  A
O1687     Cu1692   2.017       .  S
O1687      C1696   1.279       .  A
O1688     Cu1692   2.017       .  S
O1688      C1695   1.279       .  A
O1689     Cu1692   2.005       .  S
O1689      C1694   1.279       .  A
O1690     Cu1692   2.011       .  S
O1690      C1693   1.277       .  A
Cu1691    Cu1692   2.367       .  S
C1693      C2082   1.483       .  S
C1694      C2157   1.485       .  S
C1695      C2194   1.492       .  S
C1696      C2054   1.487       .  S
C1697      C1698   1.536       .  S
C1697      C1703   1.537       .  S
C1697      C1701   1.543       .  S
C1697      C1970   1.542       .  S
C1698      H1705   1.086       .  S
C1698      C1699   1.367       .  D
C1699      C1700   1.542       .  S
C1699      C2110   1.494       .  S
C1700      C1704   1.543       .  S
C1700      C1702   1.536       .  S
C1700      H1706   1.107       .  S
C1701      H1707   1.080       .  S
C1701      C1702   1.364       .  D
C1702      C2129   1.485       .  S
C1703      H1708   1.084       .  S
C1703      C1704   1.369       .  D
C1704      C1942   1.486       .  S
O1709     Cu1717   2.006       .  S
O1709      C1719   1.277       .  A
O1710     Cu1717   2.009       .  S
O1710      C1720   1.278       .  A
O1711     Cu1717   2.019       .  S
O1711      C1721   1.279       .  A
O1712     Cu1717   2.011       .  S
O1712      C1722   1.279       .  A
O1713     Cu1718   2.013       .  S
O1714     Cu1718   2.002       .  S
O1715     Cu1718   2.020       .  S
O1716     Cu1718   2.019       .  S
C1719      C1886   1.490       .  S
C1720      C1858   1.480       .  S
C1721      C1821   1.490       .  S
C1722      C1914   1.484       .  S
O1723     Cu1731   2.002       .  S
O1723      C1733   1.277       .  A
O1724     Cu1731   2.005       .  S
O1724      C1734   1.277       .  A
O1725     Cu1731   2.012       .  S
O1725      C1735   1.279       .  A
O1726     Cu1731   1.996       .  S
O1726      C1736   1.277       .  A
O1727     Cu1732   2.014       .  S
O1727      C1736   1.278       .  A
O1728     Cu1732   2.012       .  S
O1728      C1735   1.278       .  A
O1729     Cu1732   2.015       .  S
O1729      C1734   1.279       .  A
O1730     Cu1732   2.010       .  S
O1730      C1733   1.277       .  A
Cu1731    Cu1732   2.370       .  S
C1733      C1793   1.474       .  S
C1734      C1830   1.484       .  S
C1735      C1849   1.490       .  S
C1736      C1765   1.482       .  S
C1737      C1738   1.533       .  S
C1737      C1741   1.547       .  S
C1737      C1961   1.540       .  S
C1738      H1745   1.083       .  S
C1739      C1740   1.542       .  S
C1739      C1802   1.493       .  S
C1740      C1744   1.545       .  S
C1740      C1742   1.533       .  S
C1740      H1746   1.109       .  S
C1741      H1747   1.081       .  S
C1742      C1774   1.483       .  S
C1743      H1748   1.084       .  S
C1743      C1744   1.367       .  D
C1744      C1933   1.487       .  S
C1749      C1750   1.539       .  S
C1749      C1755   1.542       .  S
C1749      C1753   1.547       .  S
C1749      C1998   1.546       .  S
C1750      H1757   1.086       .  S
C1750      C1751   1.368       .  D
C1751      C1877   1.491       .  S
C1752      C1756   1.538       .  S
C1752      H1758   1.109   1_455  S
C1753      H1759   1.081       .  S
C1753      C1754   1.365       .  D
C1754      C1905   1.484       .  S
C1755      H1760   1.085       .  S
C1756      C2026   1.478   1_455  S
C1761      C1762   1.399       .  A
C1761      C1766   1.402       .  A
C1761      H1771   1.084       .  S
C1763      N1768   1.429   1_455  S
C1764      C1765   1.406       .  A
C1765      C1766   1.416       .  A
C1766      N1770   1.428       .  S
C1767      C1772   1.407       .  A
C1767      C1776   1.402       .  A
N1768      O1783   1.262       .  A
N1770      O1781   1.262       .  A
N1770      O1782   1.262       .  A
C1772      C1773   1.399       .  A
C1773      C1774   1.404       .  A
C1773      H1778   1.084       .  S
C1774      C1775   1.411       .  A
C1775      C1776   1.401       .  A
C1775      N1779   1.429       .  S
N1777      O1787   1.262       .  A
N1777      O1788   1.262       .  A
N1779      O1785   1.262       .  A
C1789      C1790   1.402       .  A
C1789      C1794   1.396       .  A
C1789      H1799   1.084       .  S
C1790      C1795   1.479       .  S
C1790      C1791   1.411       .  A
C1791      C1792   1.403       .  A
C1791      N1796   1.431       .  S
C1792      C1793   1.404       .  A
C1792      H1797   1.084       .  S
C1793      C1794   1.410       .  A
C1794      N1798   1.429       .  S
C1795      C1800   1.408       .  A
C1795      C1804   1.399       .  A
N1796      O1811   1.262       .  A
N1796      O1812   1.262       .  A
N1798      O1809   1.262       .  A
N1798      O1810   1.262       .  A
C1800      C1801   1.402       .  A
C1800      N1805   1.430       .  S
C1801      C1802   1.406       .  A
C1801      H1806   1.077       .  S
C1802      C1803   1.417       .  A
C1803      C1804   1.397       .  A
C1804      H1808   1.084       .  S
N1805      O1815   1.262       .  A
N1805      O1816   1.262       .  A
N1807      O1813   1.261       .  A
N1807      O1814   1.262       .  A
C1817      C1818   1.404       .  A
C1817      C1822   1.401       .  A
C1817      H1827   1.084       .  S
C1819      C1820   1.400       .  A
C1819      N1824   1.429   1_565  S
C1820      H1825   1.083       .  S
C1821      C1822   1.415       .  A
C1822      N1826   1.429       .  S
C1823      C1828   1.410       .  A
C1823      C1832   1.403       .  A
N1824      O1839   1.262   1_545  A
N1826      O1837   1.262       .  A
N1826      O1838   1.262       .  A
C1828      C1829   1.400       .  A
C1828      N1833   1.429       .  S
C1829      C1830   1.405       .  A
C1829      H1834   1.084       .  S
C1830      C1831   1.414       .  A
C1831      C1832   1.401       .  A
N1833      O1843   1.262       .  A
N1833      O1844   1.262       .  A
C1845      C1846   1.404       .  A
C1845      C1850   1.401       .  A
C1845      H1855   1.083       .  S
C1846      C1851   1.491       .  S
C1847      C1848   1.402       .  A
C1847      N1852   1.429       .  S
C1848      H1853   1.083       .  S
C1849      C1850   1.415       .  A
C1850      N1854   1.429       .  S
C1851      C1856   1.412       .  A
N1852      O1867   1.262       .  A
N1852      O1868   1.262       .  A
N1854      O1865   1.262       .  A
N1854      O1866   1.262       .  A
C1856      C1857   1.400       .  A
C1856      N1861   1.430       .  S
C1857      C1858   1.402       .  A
C1857      H1862   1.084       .  S
C1859      C1860   1.404       .  A
C1859      N1863   1.429       .  S
C1860      H1864   1.083       .  S
N1861      O1871   1.262       .  A
N1861      O1872   1.262       .  A
N1863      O1869   1.262       .  A
N1863      O1870   1.262       .  A
C1873      C1874   1.404       .  A
C1873      C1878   1.404       .  A
C1873      H1883   1.084       .  S
C1875      C1876   1.402       .  A
C1875      N1880   1.429       .  S
C1876      H1881   1.084       .  S
C1877      C1878   1.413       .  A
C1878      N1882   1.428       .  S
C1879      C1884   1.410       .  A
N1880      O1895   1.262       .  A
N1880      O1896   1.262       .  A
N1882      O1893   1.261       .  A
N1882      O1894   1.262       .  A
C1884      C1885   1.402       .  A
C1885      C1886   1.407       .  A
C1885      H1890   1.083       .  S
C1887      C1888   1.401       .  A
C1887      N1891   1.429       .  S
C1888      H1892   1.084       .  S
N1889      O1899   1.262       .  A
N1889      O1900   1.262       .  A
N1891      O1897   1.262       .  A
N1891      O1898   1.262       .  A
C1901      C1906   1.406       .  A
C1901      H1911   1.083       .  S
C1902      C1907   1.486       .  S
C1902      C1903   1.409       .  A
C1903      C1904   1.396       .  A
C1903      N1908   1.429       .  S
C1904      C1905   1.402       .  A
C1904      H1909   1.084       .  S
C1906      N1910   1.428       .  S
C1907      C1916   1.403       .  A
N1908      O1923   1.262       .  A
N1908      O1924   1.262       .  A
N1910      O1921   1.262       .  A
N1910      O1922   1.262       .  A
C1912      C1913   1.405       .  A
C1912      N1917   1.429       .  S
C1913      H1918   1.084       .  S
C1914      C1915   1.411       .  A
C1915      C1916   1.398       .  A
C1915      N1919   1.428       .  S
C1916      H1920   1.084       .  S
N1917      O1927   1.262       .  A
N1917      O1928   1.262       .  A
N1919      O1925   1.262       .  A
N1919      O1926   1.262       .  A
C1929      C1930   1.401       .  A
C1929      C1934   1.403       .  A
C1929      H1939   1.084       .  S
C1930      C1935   1.478       .  S
C1930      C1931   1.406       .  A
C1931      C1932   1.400       .  A
C1931      N1936   1.429       .  S
C1932      C1933   1.402       .  A
C1932      H1937   1.077       .  S
C1933      C1934   1.414       .  A
C1934      N1938   1.429       .  S
C1935      C1940   1.407       .  A
C1935      C1944   1.400       .  A
N1936      O1951   1.262       .  A
N1936      O1952   1.262       .  A
N1938      O1949   1.262       .  A
N1938      O1950   1.262       .  A
C1940      C1941   1.402       .  A
C1940      N1945   1.428       .  S
C1941      C1942   1.404       .  A
C1941      H1946   1.084       .  S
C1942      C1943   1.415       .  A
C1943      C1944   1.400       .  A
C1943      N1947   1.430       .  S
C1944      H1948   1.084       .  S
N1945      O1955   1.262       .  A
N1945      O1956   1.262       .  A
N1947      O1953   1.261       .  A
N1947      O1954   1.262       .  A
C1957      C1958   1.398       .  A
C1957      C1962   1.403       .  A
C1957      H1967   1.084       .  S
C1958      C1963   1.479       .  S
C1958      C1959   1.403       .  A
C1959      C1960   1.399       .  A
C1959      N1964   1.430       .  S
C1960      C1961   1.414       .  A
C1960      H1965   1.076       .  S
C1961      C1962   1.423       .  A
C1962      N1966   1.431       .  S
C1963      C1968   1.402       .  A
C1963      C1972   1.399       .  A
N1964      O1979   1.262       .  A
N1964      O1980   1.262       .  A
N1966      O1977   1.262       .  A
C1968      C1969   1.397       .  A
C1968      N1973   1.430       .  S
C1969      C1970   1.415       .  A
C1969      H1974   1.075       .  S
C1970      C1971   1.423       .  A
C1971      C1972   1.405       .  A
C1971      N1975   1.430       .  S
C1972      H1976   1.084       .  S
N1973      O1983   1.262       .  A
N1973      O1984   1.262       .  A
N1975      O1981   1.262       .  A
N1975      O1982   1.262       .  A
C1985      C1986   1.401       .  A
C1985      C1990   1.408       .  A
C1985      H1995   1.084       .  S
C1986      C1991   1.485       .  S
C1986      C1987   1.401       .  A
C1987      C1988   1.399       .  A
C1987      N1992   1.429       .  S
C1988      C1989   1.416       .  A
C1988      H1993   1.077       .  S
C1989      C1990   1.423       .  A
C1990      N1994   1.430       .  S
C1991      C1996   1.402       .  A
C1991      C2000   1.399       .  A
N1992      O2007   1.262       .  A
N1992      O2008   1.262       .  A
N1994      O2005   1.262       .  A
N1994      O2006   1.261       .  A
C1996      C1997   1.402       .  A
C1996      N2001   1.429       .  S
C1997      C1998   1.416       .  A
C1997      H2002   1.075       .  S
C1998      C1999   1.424       .  A
C1999      C2000   1.406       .  A
C1999      N2003   1.431       .  S
C2000      H2004   1.084       .  S
N2001      O2011   1.262       .  A
N2001      O2012   1.262       .  A
N2003      O2009   1.262       .  A
N2003      O2010   1.262       .  A
C2013      C2014   1.403       .  A
C2013      C2018   1.404       .  A
C2013      H2023   1.083       .  S
C2014      C2019   1.493       .  S
C2014      C2015   1.411       .  A
C2015      C2016   1.401       .  A
C2015      N2020   1.429       .  S
C2016      C2017   1.408       .  A
C2016      H2021   1.083       .  S
C2017      C2018   1.421       .  A
C2018      N2022   1.429       .  S
C2019      C2024   1.415       .  A
C2019      C2028   1.406       .  A
N2020      O2035   1.262       .  A
N2020      O2036   1.262       .  A
N2022      O2033   1.262       .  A
N2022      O2034   1.260       .  A
C2024      C2025   1.403       .  A
C2024      N2029   1.430       .  S
C2025      C2026   1.400       .  A
C2025      H2030   1.083       .  S
C2026      C2027   1.406       .  A
C2027      C2028   1.401       .  A
C2027      N2031   1.429       .  S
C2028      H2032   1.083       .  S
N2029      O2039   1.262       .  A
N2029      O2040   1.262       .  A
N2031      O2037   1.262       .  A
N2031      O2038   1.262       .  A
C2041      C2042   1.402       .  A
C2041      C2046   1.400       .  A
C2041      H2051   1.084       .  S
C2042      C2047   1.484       .  S
C2042      C2043   1.412       .  A
C2043      C2044   1.403       .  A
C2043      N2048   1.431       .  S
C2044      C2045   1.401       .  A
C2044      H2049   1.079       .  S
C2045      C2046   1.413       .  A
C2046      N2050   1.432       .  S
C2047      C2052   1.409       .  A
C2047      C2056   1.402       .  A
N2048      O2063   1.262       .  A
N2048      O2064   1.262       .  A
N2050      O2061   1.261       .  A
N2050      O2062   1.262       .  A
C2052      C2053   1.403       .  A
C2052      N2057   1.430       .  S
C2053      C2054   1.407       .  A
C2053      H2058   1.084       .  S
C2054      C2055   1.414       .  A
C2055      C2056   1.400       .  A
C2055      N2059   1.429       .  S
C2056      H2060   1.084       .  S
N2057      O2067   1.262       .  A
N2057      O2068   1.262       .  A
N2059      O2065   1.262       .  A
N2059      O2066   1.262       .  A
C2069      C2070   1.405       .  A
C2069      C2074   1.404       .  A
C2069      H2079   1.083       .  S
C2070      C2071   1.411       .  A
C2071      C2072   1.401       .  A
C2071      N2076   1.430       .  S
C2072      C2073   1.401       .  A
C2072      H2077   1.078       .  S
C2073      C2074   1.413       .  A
C2074      N2078   1.430       .  S
C2075      C2080   1.407       .  A
C2075      C2084   1.403       .  A
N2076      O2091   1.262       .  A
N2076      O2092   1.262       .  A
N2078      O2089   1.262       .  A
N2078      O2090   1.262       .  A
C2080      C2081   1.397       .  A
C2081      C2082   1.405       .  A
C2081      H2086   1.084       .  S
C2082      C2083   1.415       .  A
C2083      C2084   1.402       .  A
C2083      N2087   1.429       .  S
C2084      H2088   1.084   1_565  S
N2085      O2096   1.262       .  A
N2087      O2093   1.262       .  A
N2087      O2094   1.262       .  A
C2097      C2098   1.405       .  A
C2097      C2102   1.404       .  A
C2097      H2107   1.083       .  S
C2098      C2103   1.495       .  S
C2098      C2099   1.411       .  A
C2099      C2100   1.403       .  A
C2099      N2104   1.429       .  S
C2100      C2101   1.408       .  A
C2100      H2105   1.083       .  S
C2101      C2102   1.417       .  A
C2102      N2106   1.429       .  S
C2103      C2108   1.412       .  A
C2103      C2112   1.406       .  A
N2104      O2119   1.262       .  A
N2104      O2120   1.262       .  A
N2106      O2117   1.262       .  A
N2106      O2118   1.262       .  A
C2108      C2109   1.401       .  A
C2108      N2113   1.429       .  S
C2109      C2110   1.405       .  A
C2109      H2114   1.084       .  S
C2110      C2111   1.413       .  A
C2111      C2112   1.406       .  A
C2111      N2115   1.428       .  S
C2112      H2116   1.083       .  S
N2113      O2123   1.262       .  A
N2113      O2124   1.262       .  A
N2115      O2121   1.261       .  A
N2115      O2122   1.262       .  A
C2125      C2126   1.407       .  A
C2125      C2130   1.407       .  A
C2125      H2135   1.083       .  S
C2126      C2127   1.410       .  A
C2127      C2128   1.392       .  A
C2127      N2132   1.430       .  S
C2128      C2129   1.402       .  A
C2128      H2133   1.084       .  S
C2129      C2130   1.410       .  A
C2130      N2134   1.428       .  S
C2131      C2136   1.408       .  A
C2131      C2140   1.403       .  A
N2132      O2147   1.262       .  A
N2132      O2148   1.262       .  A
N2134      O2145   1.262       .  A
N2134      O2146   1.261       .  A
C2136      C2137   1.402       .  A
C2136      N2141   1.429       .  S
C2137      C2138   1.406       .  A
C2137      H2142   1.084       .  S
C2138      C2139   1.410       .  A
C2139      C2140   1.397       .  A
C2139      N2143   1.429       .  S
C2140      H2144   1.084       .  S
N2141      O2151   1.262       .  A
N2143      O2149   1.262       .  A
N2143      O2150   1.262       .  A
C2153      C2154   1.402       .  A
C2153      C2158   1.401       .  A
C2153      H2163   1.084       .  S
C2154      C2159   1.481   1_556  S
C2154      C2155   1.408       .  A
C2155      C2156   1.397       .  A
C2155      N2160   1.429       .  S
C2156      C2157   1.406       .  A
C2156      H2161   1.083       .  S
C2157      C2158   1.416       .  A
C2158      N2162   1.429       .  S
C2159      C2164   1.410       .  A
C2159      C2168   1.404       .  A
N2160      O2175   1.262       .  A
N2160      O2176   1.262   1_556  A
N2162      O2173   1.262       .  A
N2162      O2174   1.262       .  A
C2164      C2165   1.398       .  A
C2164      N2169   1.429       .  S
C2165      C2166   1.403       .  A
C2165      H2170   1.084       .  S
C2166      C2167   1.410       .  A
C2167      C2168   1.399       .  A
C2167      N2171   1.429       .  S
C2168      H2172   1.083   1_554  S
N2169      O2179   1.262       .  A
N2169      O2180   1.262       .  A
N2171      O2177   1.262       .  A
N2171      O2178   1.262       .  A
C2181      C2182   1.405       .  A
C2181      C2186   1.404       .  A
C2181      H2191   1.083   1_554  S
C2182      C2183   1.411       .  A
C2183      C2184   1.402       .  A
C2184      C2185   1.403       .  A
C2184      H2189   1.084       .  S
C2185      C2186   1.412       .  A
C2186      N2190   1.430       .  S
C2187      C2192   1.410       .  A
C2187      C2196   1.404       .  A
N2188      O2203   1.262       .  A
N2188      O2204   1.262       .  A
N2190      O2201   1.262       .  A
N2190      O2202   1.262       .  A
C2192      C2193   1.402       .  A
C2192      N2197   1.429       .  S
C2193      C2194   1.407       .  A
C2193      H2198   1.083       .  S
C2194      C2195   1.416       .  A
C2195      C2196   1.403       .  A
C2195      N2199   1.429       .  S
C2196      H2200   1.084       .  S
N2197      O2207   1.262       .  A
N2199      O2205   1.262       .  A
N2199      O2206   1.262       .  A
