geometry optimzed in LAMMPS
_audit_creation_date              2020-11-30 
_audit_creation_method            'lammps2cif' 
_symmetry_space_group_name_H-M    'P1' 
_symmetry_Int_Tables_number       1 
_symmetry_cell_setting            triclinic 
loop_ 
_symmetry_equiv_pos_as_xyz 
  x,y,z 
_cell_length_a                    33.57828928911828 
_cell_length_b                    50.14280675346485 
_cell_length_c                    37.71831755477463 
_cell_angle_alpha                 89.90656018136868 
_cell_angle_beta                  90.33869933374257 
_cell_angle_gamma                 90.04317098209741 
loop_ 
_atom_site_label 
_atom_site_type_symbol 
_atom_site_fract_x 
_atom_site_fract_y 
_atom_site_fract_z 
_atom_site_charge 
O1          O  0.02443538  0.03454489  0.41487750    -0.56980
C2          C  0.99475320  0.08222844  0.32723118     0.75650
O3          O  0.92767787  0.08860397  0.42403861    -0.58140
C4          C  0.02565239  0.03716823  0.44830239     0.75620
C5          C  0.04400581  0.12465379  0.42354367     0.78010
Cd6        Cd  0.99707366  0.07923301  0.40332930     1.37460
O7          O  0.01854946  0.06665796  0.34330997    -0.56980
O8          O  0.05824909  0.10528623  0.40620608    -0.55790
C9          C  0.91578266  0.06512590  0.41693505     0.77970
O10         O  0.00728216  0.12316603  0.43114298    -0.58160
O11         O  0.97363677  0.09707122  0.34666396    -0.56610
O12         O  0.01831139  0.06011199  0.46051697    -0.56600
O13         O  0.94090673  0.04972765  0.40297749    -0.55770
O14         O  0.02861522  0.45429769  0.58206322    -0.56980
C15         C  0.99146184  0.40930230  0.67598565     0.75650
O16         O  0.92537723  0.40240014  0.58298212    -0.58140
C17         C  0.01938604  0.45094073  0.54960258     0.75620
C18         C  0.04240168  0.36631403  0.57985399     0.78010
Cd19       Cd  0.99568651  0.41148745  0.60038872     1.37460
O20         O  0.01728001  0.42394232  0.66087911    -0.56980
O21         O  0.05603331  0.38415690  0.60033169    -0.55790
C22         C  0.91432189  0.42611112  0.58978708     0.77970
O23         O  0.00632178  0.36862594  0.57011924    -0.58160
O24         O  0.96985620  0.39495434  0.65606820    -0.56610
O25         O  0.00399981  0.42873764  0.54163368    -0.56600
O26         O  0.94047530  0.44157664  0.60256709    -0.55770
O27         O  0.75036984  0.99964294  0.45168587    -0.56980
C28         C  0.65144839  0.45721802  0.47113785     0.75650
O29         O  0.74911337  0.49208676  0.55337053    -0.58140
C30         C  0.76495643  0.02177535  0.46146476     0.75620
C31         C  0.65051530  0.03452141  0.53100995     0.78010
Cd32       Cd  0.70402800  0.49594849  0.50181445     1.37470
O33         O  0.66127925  0.47780207  0.45365238    -0.56980
O34         O  0.66490170  0.03660410  0.50023017    -0.55790
C35         C  0.76396392  0.47001935  0.54384297     0.77970
O36         O  0.65991721  0.01389125  0.54866387    -0.58160
O37         O  0.66491623  0.45531111  0.50240574    -0.56610
O38         O  0.74823102  0.03324702  0.48714321    -0.56600
O39         O  0.74793342  0.45871441  0.51750647    -0.55770
O40         O  0.52424918  0.20562643  0.58806099    -0.56980
C41         C  0.49097443  0.15909429  0.67579085     0.75650
O42         O  0.42836045  0.15023603  0.57317272    -0.58140
C43         C  0.52137280  0.20405259  0.55456141     0.75620
C44         C  0.54470112  0.11713248  0.58050531     0.78010
Cd45       Cd  0.49467446  0.16131074  0.59948919     1.37470
O46         O  0.51294523  0.17603255  0.66023863    -0.56980
O47         O  0.55862558  0.13907896  0.59160064    -0.55790
C48         C  0.41183698  0.17111743  0.58517680     0.77970
O49         O  0.50706702  0.11528214  0.57867124    -0.58160
O50         O  0.47323744  0.14257398  0.65593211    -0.56610
O51         O  0.50920199  0.18206109  0.54215315    -0.56600
O52         O  0.43368666  0.18635917  0.60345870    -0.55770
O53         O  0.52791294  0.28725024  0.41981179    -0.56980
C54         C  0.49241195  0.33016722  0.32743281     0.75650
O55         O  0.43307754  0.34226613  0.43492609    -0.58140
C56         C  0.52089669  0.28971719  0.45270966     0.75620
C57         C  0.54611304  0.37433533  0.42038877     0.78010
Cd58       Cd  0.49471332  0.33033735  0.40352676     1.37460
O59         O  0.50362656  0.30970718  0.34465003    -0.56980
O60         O  0.55947169  0.35146170  0.41264721    -0.55790
C61         C  0.41212809  0.32425849  0.42040038     0.77970
O62         O  0.50858734  0.37711539  0.41945346    -0.58160
O63         O  0.48462347  0.35078696  0.34540453    -0.56610
O64         O  0.50411207  0.31115600  0.46184213    -0.56600
O65         O  0.42841521  0.31095175  0.39607035    -0.55770
O66         O  0.24088002  0.22896531  0.55369382    -0.56980
C67         C  0.15008570  0.28445845  0.53008164     0.75650
O68         O  0.24099346  0.26624213  0.44990981    -0.58140
C69         C  0.26147706  0.21232630  0.53633796     0.75620
C70         C  0.15070095  0.20839452  0.47072914     0.78010
Cd71       Cd  0.20482597  0.24634832  0.50109230     1.37470
O72         O  0.16971578  0.26873698  0.54992975    -0.56980
O73         O  0.15031700  0.21442560  0.50328416    -0.55790
C74         C  0.26392298  0.28019108  0.46932270     0.77970
O75         O  0.17597507  0.22040380  0.45155875    -0.58160
O76         O  0.15604713  0.28228923  0.49706752    -0.56610
O77         O  0.25351993  0.21040155  0.50366260    -0.56600
O78         O  0.25723796  0.27939923  0.50225048    -0.55770
O79         O  0.93513423  0.45445393  0.92189797    -0.56980
C80         C  0.97246071  0.41065210  0.82821593     0.75650
O81         O  0.03539785  0.40074549  0.92566448    -0.58140
C82         C  0.94282011  0.45099358  0.95463323     0.75620
C83         C  0.91751059  0.36683753  0.92017758     0.78010
Cd84       Cd  0.96752569  0.41175183  0.90390024     1.37470
O85         O  0.94642895  0.42500628  0.84333210    -0.56980
O86         O  0.90446538  0.38782394  0.90554404    -0.55790
C87         C  0.04996588  0.42306093  0.91615013     0.77970
O88         O  0.95466520  0.36632499  0.92669046    -0.58160
O89         O  0.99442024  0.39646552  0.84799728    -0.56610
O90         O  0.95891450  0.42904718  0.96295194    -0.56600
O91         O  0.02637063  0.43908533  0.90085460    -0.55770
O92         O  0.95913942  0.06133496  0.15894205    -0.56980
C93         C  0.94254324  0.03699826  0.05559056     0.75650
O94         O  0.95504319  0.12634628  0.08047310    -0.58140
C95         C  0.96987646  0.08219154  0.17533328     0.75620
C96         C  0.05204011  0.07354592  0.08399141     0.78010
Cd97       Cd  0.96879833  0.08035327  0.09943561     1.37470
O98         O  0.94172865  0.03531507  0.08912278    -0.56980
O99         O  0.03409619  0.06042656  0.10757474    -0.55790
C100        C  0.91745218  0.12381984  0.08081516     0.77970
O101        O  0.03195342  0.09163976  0.06865247    -0.58160
O102        O  0.95170067  0.05940497  0.04258543    -0.56610
O103        O  0.97755616  0.10258270  0.15681141    -0.56600
O104        O  0.90393464  0.10128273  0.09016075    -0.55770
O105        O  0.29684768  0.47372078  0.05019039    -0.56980
C106        C  0.20006626  0.02819394  0.03672581     0.75650
O107        O  0.29938298  0.01614353  0.95376274    -0.58140
C108        C  0.31320275  0.45712805  0.02946754     0.75620
C109        C  0.19993562  0.46469518  0.96561973     0.78010
Cd110      Cd  0.25890154  0.49630528  0.00168425     1.37470
O111        O  0.22189011  0.01224246  0.05441043    -0.56980
O112        O  0.20875754  0.46130096  0.99794247    -0.55790
C113        C  0.31131821  0.03563452  0.97236480     0.77970
O114        O  0.22008405  0.48210128  0.94906875    -0.58160
O115        O  0.20729765  0.02985749  0.00392189    -0.56610
O116        O  0.30503424  0.45956212  0.99688209    -0.56600
O117        O  0.29962201  0.03646452  0.00415070    -0.55770
O118        O  0.43725296  0.20428814  0.91847943    -0.56980
C119        C  0.47168648  0.16114411  0.82844434     0.75650
O120        O  0.53133575  0.14946575  0.93885957    -0.58140
C121        C  0.44377334  0.20256077  0.95160821     0.75620
C122        C  0.41839729  0.11742227  0.92200894     0.78010
Cd123      Cd  0.47058758  0.16081907  0.90459416     1.37460
O124        O  0.46681355  0.18249250  0.84587081    -0.56980
O125        O  0.40553221  0.14052570  0.91459138    -0.55790
C126        C  0.55373032  0.16539039  0.92210593     0.77970
O127        O  0.45579807  0.11408322  0.92042863    -0.58160
O128        O  0.47354277  0.13966583  0.84603373    -0.56610
O129        O  0.46068165  0.18143033  0.96199308    -0.56600
O130        O  0.53860079  0.17692321  0.89549502    -0.55770
O131        O  0.43792841  0.28698597  0.08595215    -0.56980
C132        C  0.47147245  0.33269773  0.17469299     0.75650
O133        O  0.53699324  0.33989432  0.07264337    -0.58140
C134        C  0.44240159  0.28844761  0.05259383     0.75620
C135        C  0.42009473  0.37460486  0.07875601     0.78010
Cd136      Cd  0.46971423  0.33053758  0.09849194     1.37460
O137        O  0.45143273  0.31495997  0.15852347    -0.56980
O138        O  0.40598935  0.35204541  0.08697568    -0.55790
C139        C  0.55160926  0.31840532  0.08499238     0.77970
O140        O  0.45764382  0.37727757  0.08013638    -0.58160
O141        O  0.48867977  0.34979671  0.15542892    -0.56610
O142        O  0.45663818  0.31006696  0.04076189    -0.56600
O143        O  0.52901412  0.30455168  0.10428196    -0.55770
O144        O  0.72350309  0.26005474  0.05819757    -0.56980
C145        C  0.81169602  0.20717081  0.03221449     0.75650
O146        O  0.72068739  0.22677935  0.95462940    -0.58140
C147        C  0.70587349  0.27972781  0.04403102     0.75620
C148        C  0.81389833  0.28260234  0.96988128     0.78010
Cd149      Cd  0.75954973  0.24720398  0.00459996     1.37470
O150        O  0.80408300  0.22795053  0.05006706    -0.56980
O151        O  0.81944273  0.27423618  0.00116871    -0.55790
C152        C  0.69709953  0.21447042  0.97525320     0.77970
O153        O  0.78311416  0.27411252  0.95376820    -0.58160
O154        O  0.79592569  0.20544173  0.00174047    -0.56610
O155        O  0.71721496  0.28657896  0.01345720    -0.56600
O156        O  0.70397623  0.21701279  0.00798964    -0.55770
C157        C  0.66980402  0.29126927  0.05982733     0.00680
C158        C  0.64055378  0.27315332  0.07051862    -0.11200
C159        C  0.60204081  0.28159432  0.07815580     0.02910
C160        C  0.59247839  0.30909845  0.07697997     0.00590
C161        C  0.62227122  0.32747191  0.06747290    -0.11140
C162        C  0.66070535  0.31870876  0.05856131     0.02800
H163        H  0.64700316  0.25197257  0.07034635     0.15780
H164        H  0.61544496  0.34858326  0.06660605     0.15780
C165        C  0.69040673  0.33811216  0.04867534     0.37430
C166        C  0.57234196  0.26116176  0.08383838     0.37340
N167        N  0.71433418  0.35366580  0.04097037    -0.42910
N168        N  0.54863237  0.24469493  0.08791211    -0.42910
C169        C  0.59385909  0.17265561  0.93512414     0.00680
C170        C  0.59874418  0.17633039  0.97165119    -0.11200
C171        C  0.63232629  0.18925326  0.98538003     0.02910
C172        C  0.66262407  0.19846086  0.96222715     0.00590
C173        C  0.65882941  0.19309988  0.92576817    -0.11140
C174        C  0.62483624  0.18033078  0.91213083     0.02800
H175        H  0.57489644  0.17069201  0.98947761     0.15780
H176        H  0.68205300  0.19937211  0.90771964     0.15780
C177        C  0.62261071  0.17502437  0.87456841     0.37430
C178        C  0.63312266  0.19403543  0.02314991     0.37340
N179        N  0.62106544  0.17049321  0.84451806    -0.42910
N180        N  0.63332432  0.19779102  0.05341885    -0.42910
C181        C  0.43400989  0.26575909  0.02837116     0.00680
C182        C  0.42558011  0.27105262  0.99246357    -0.11200
C183        C  0.42525655  0.25057106  0.96710685     0.02910
C184        C  0.43456480  0.22416409  0.97742817     0.00590
C185        C  0.43973142  0.21866809  0.01379332    -0.11140
C186        C  0.43935728  0.23901496  0.03916316     0.02800
H187        H  0.42058139  0.29144225  0.98393569     0.15780
H188        H  0.44598314  0.19846423  0.02245321     0.15780
C189        C  0.44773241  0.23192924  0.07558673     0.37430
C190        C  0.41686525  0.25756603  0.93068895     0.37340
N191        N  0.45448285  0.22616288  0.10473233    -0.42910
N192        N  0.40985029  0.26323691  0.90155953    -0.42910
C193        C  0.33754624  0.05655266  0.95796242     0.00680
C194        C  0.37175044  0.04921484  0.93919306    -0.11200
C195        C  0.39868500  0.06859010  0.92720520     0.02910
C196        C  0.39083545  0.09592286  0.93314374     0.00590
C197        C  0.35584240  0.10316081  0.95095391    -0.11140
C198        C  0.32954817  0.08380205  0.96370473     0.02800
H199        H  0.37795610  0.02827891  0.93470646     0.15780
H200        H  0.34938750  0.12403612  0.95565691     0.15780
C201        C  0.29409864  0.09243671  0.98193906     0.37430
C202        C  0.43369447  0.05984152  0.90850619     0.37340
N203        N  0.26566979  0.09930428  0.99652035    -0.42910
N204        N  0.46176897  0.05275944  0.89357664    -0.42910
C205        C  0.34040083  0.43583705  0.04225884     0.00680
C206        C  0.36233642  0.43962282  0.07374775    -0.11200
C207        C  0.38911231  0.42010608  0.08592836     0.02910
C208        C  0.39366737  0.39622735  0.06676359     0.00590
C209        C  0.37129549  0.39215574  0.03585294    -0.11140
C210        C  0.34509269  0.41168224  0.02328827     0.02800
H211        H  0.35889214  0.45793038  0.08865898     0.15780
H212        H  0.37446107  0.37361109  0.02136368     0.15780
C213        C  0.32265334  0.40588001  0.99140696     0.37430
C214        C  0.41050521  0.42452394  0.11870712     0.37340
N215        N  0.30476209  0.40118849  0.96584279    -0.42910
N216        N  0.42755138  0.42796007  0.14506433    -0.42910
C217        C  0.89037603  0.14568799  0.06993982     0.00680
C218        C  0.85366742  0.13896683  0.05428461    -0.11200
C219        C  0.82759346  0.15871455  0.04204074     0.02910
C220        C  0.83772716  0.18585566  0.04603361     0.00590
C221        C  0.87373312  0.19269678  0.06270483    -0.11140
C222        C  0.90028671  0.17291113  0.07428093     0.02800
H223        H  0.84560104  0.11817751  0.05094569     0.15780
H224        H  0.88154587  0.21353996  0.06593354     0.15780
C225        C  0.93701882  0.18116084  0.09106401     0.37430
C226        C  0.79016669  0.15060765  0.02628899     0.37340
N227        N  0.96645451  0.18783210  0.10448743    -0.42910
N228        N  0.76014711  0.14416814  0.01371425    -0.42910
C229        C  0.09351214  0.06656096  0.07417664     0.00680
C230        C  0.11547345  0.04994525  0.09716520    -0.11200
C231        C  0.15148841  0.03838429  0.08666368     0.02910
C232        C  0.16636732  0.04338871  0.05230244     0.00590
C233        C  0.14591810  0.06166415  0.03042955    -0.11140
C234        C  0.10987140  0.07314294  0.04088663     0.02800
H235        H  0.10362961  0.04500189  0.12306923     0.15780
H236        H  0.15712975  0.06614727  0.00417146     0.15780
C237        C  0.08923334  0.09001087  0.01573808     0.37430
C238        C  0.17112790  0.02051682  0.11119604     0.37340
N239        N  0.07274811  0.10344413  0.99545014    -0.42910
N240        N  0.18667395  0.00622746  0.13102760    -0.42910
C241        C  0.89072072  0.34431800  0.92991451     0.00680
C242        C  0.90692944  0.32240582  0.94829575    -0.11200
C243        C  0.88268353  0.30162351  0.96046072     0.02910
C244        C  0.84127936  0.30224468  0.95387234     0.00590
C245        C  0.82517275  0.32339559  0.93420716    -0.11140
C246        C  0.84919043  0.34448689  0.92258274     0.02800
H247        H  0.93861763  0.32169204  0.95391709     0.15780
H248        H  0.79331240  0.32407605  0.92928758     0.15780
C249        C  0.82976119  0.36627214  0.90432860     0.37430
C250        C  0.90113350  0.27974372  0.97932421     0.37340
N251        N  0.81391443  0.38371774  0.88991278    -0.42910
N252        N  0.91589671  0.26218567  0.99439055    -0.42910
C253        C  0.16590877  0.45046821  0.94891945     0.00680
C254        C  0.14698974  0.46229261  0.91960956    -0.11200
C255        C  0.11030512  0.45281833  0.90712373     0.02910
C256        C  0.09178970  0.43083152  0.92399668     0.00590
C257        C  0.11246329  0.41753742  0.95122394    -0.11140
C258        C  0.14912606  0.42712004  0.96380192     0.02800
H259        H  0.15980405  0.47992354  0.90749392     0.15780
H260        H  0.09913089  0.40032540  0.96393079     0.15780
C261        C  0.16841794  0.41275559  0.99232568     0.37430
C262        C  0.09217676  0.46658851  0.87747747     0.37340
N263        N  0.18384716  0.40117493  0.01513777    -0.42910
N264        N  0.07776263  0.47771431  0.85375585    -0.42910
C265        C  0.93655996  0.47182057  0.98207877     0.00680
C266        C  0.95861068  0.46960782  0.01378821    -0.11200
C267        C  0.95918764  0.49014158  0.03873558     0.02910
C268        C  0.93689233  0.01350100  0.03259747     0.00590
C269        C  0.91336540  0.01543565  0.00178031    -0.11140
C270        C  0.91264367  0.49470316  0.97672435     0.02800
H271        H  0.97740675  0.45235709  0.01837470     0.15780
H272        H  0.89614478  0.03338014  0.99697811     0.15780
C273        C  0.88707910  0.49742920  0.94604410     0.37430
C274        C  0.98617960  0.48785160  0.06859317     0.37340
N275        N  0.86630413  0.49956597  0.92161243    -0.42910
N276        N  0.00809548  0.48619513  0.09229160    -0.42910
C277        C  0.47585666  0.33281712  0.21395002     0.00680
C278        C  0.46766073  0.30926392  0.23282790    -0.11200
C279        C  0.47356871  0.30775981  0.26959256     0.02910
C280        C  0.48773019  0.33022069  0.28835977     0.00590
C281        C  0.49523522  0.35391091  0.26970076    -0.11140
C282        C  0.48974067  0.35539217  0.23290811     0.02800
H283        H  0.45694726  0.29179698  0.21880490     0.15780
H284        H  0.50563086  0.37138149  0.28394572     0.15780
C285        C  0.49799231  0.38053658  0.21568735     0.37430
C286        C  0.46314165  0.28329153  0.28752399     0.37340
N287        N  0.50469140  0.40071796  0.20201925    -0.42910
N288        N  0.45461144  0.26371521  0.30189905    -0.42910
C289        C  0.37171119  0.31749998  0.43269182     0.00680
C290        C  0.34265351  0.30966803  0.40787967    -0.11200
C291        C  0.30616299  0.29887521  0.41886753     0.02910
C292        C  0.29857624  0.29540129  0.45544904     0.00590
C293        C  0.32708739  0.30453865  0.48011520    -0.11140
C294        C  0.36340491  0.31525305  0.46915918     0.02800
H295        H  0.34892585  0.31135513  0.37976947     0.15780
H296        H  0.32208098  0.30196818  0.50830396     0.15780
C297        C  0.39311471  0.32113450  0.49592769     0.37430
C298        C  0.27756655  0.29129946  0.39199308     0.37510
N299        N  0.41703917  0.32556522  0.51734032    -0.42910
N300        N  0.25468965  0.28537090  0.37032403    -0.42910
C301        C  0.48570948  0.15897800  0.71500720     0.00680
C302        C  0.51001557  0.17562504  0.73592215    -0.11200
C303        C  0.50538910  0.17690367  0.77278446     0.02910
C304        C  0.47620084  0.16118022  0.78955049     0.00590
C305        C  0.45219404  0.14430704  0.76902100    -0.11140
C306        C  0.45615944  0.14334322  0.73206911     0.02800
H307        H  0.53283462  0.18769864  0.72351427     0.15780
H308        H  0.42973256  0.13217298  0.78189231     0.15780
C309        C  0.42849298  0.12675013  0.71260960     0.37430
C310        C  0.53205485  0.19367955  0.79302455     0.37340
N311        N  0.40607486  0.11356955  0.69712627    -0.42910
N312        N  0.55345789  0.20707139  0.80928507    -0.42910
C313        C  0.36982709  0.17828360  0.57707757     0.00680
C314        C  0.35065770  0.16626867  0.54803239    -0.11200
C315        C  0.31380010  0.17568697  0.53566582     0.02910
C316        C  0.29531964  0.19758139  0.55258440     0.00590
C317        C  0.31273881  0.20790211  0.58354832    -0.11140
C318        C  0.34956958  0.19858040  0.59585678     0.02800
H319        H  0.36530952  0.15028934  0.53384154     0.15780
H320        H  0.29866417  0.22437943  0.59719945     0.15780
C321        C  0.36606391  0.21083868  0.62733674     0.37430
C322        C  0.29617204  0.16276937  0.50518011     0.37340
N323        N  0.37922539  0.22073446  0.65251592    -0.42910
N324        N  0.28208163  0.15234930  0.48078487    -0.42910
C325        C  0.52907921  0.22705597  0.53081517     0.00680
C326        C  0.54296199  0.22240768  0.49627669    -0.11200
C327        C  0.54358379  0.24288141  0.47080688     0.02910
C328        C  0.52917410  0.26853515  0.47957176     0.00590
C329        C  0.51805169  0.27348413  0.51490523    -0.11140
C330        C  0.51781051  0.25316455  0.54034840     0.02800
H331        H  0.55220125  0.20248367  0.48883381     0.15780
H332        H  0.50738871  0.29305566  0.52245714     0.15780
C333        C  0.50219705  0.25925184  0.57502141     0.37430
C334        C  0.55810325  0.23665465  0.43584554     0.37340
N335        N  0.48946685  0.26413189  0.60270940    -0.42910
N336        N  0.57000603  0.23161273  0.40791398    -0.42910
C337        C  0.62438047  0.05547927  0.54533490     0.00680
C338        C  0.58818046  0.04839048  0.56116227    -0.11200
C339        C  0.56149137  0.06804324  0.57269475     0.02910
C340        C  0.57154760  0.09531652  0.56930211     0.00590
C341        C  0.60840885  0.10223660  0.55447164    -0.11140
C342        C  0.63452383  0.08267966  0.54215714     0.02800
H343        H  0.58030356  0.02750479  0.56367557     0.15780
H344        H  0.61656109  0.12306832  0.55180556     0.15780
C345        C  0.67197330  0.09103976  0.52703758     0.37430
C346        C  0.52446625  0.05964018  0.58844265     0.37340
N347        N  0.70198592  0.09769400  0.51493901    -0.42910
N348        N  0.49478124  0.05285598  0.60103154    -0.42910
C349        C  0.62577250  0.43614692  0.45613666     0.00680
C350        C  0.59049601  0.44315346  0.43835979    -0.11200
C351        C  0.56396900  0.42346241  0.42633049     0.02910
C352        C  0.57328838  0.39618757  0.43123487     0.00590
C353        C  0.60937601  0.38932991  0.44789390    -0.11140
C354        C  0.63530044  0.40895138  0.46066019     0.02800
H355        H  0.58310596  0.46403331  0.43479351     0.15780
H356        H  0.61698240  0.36851271  0.45177703     0.15780
C357        C  0.67186825  0.40062918  0.47777817     0.37430
C358        C  0.52776753  0.43184734  0.40876845     0.37340
N359        N  0.70116490  0.39399260  0.49148366    -0.42910
N360        N  0.49873270  0.43862498  0.39475123    -0.42910
C361        C  0.97760255  0.41047833  0.78939555     0.00680
C362        C  0.94413715  0.40741139  0.76745557    -0.11200
C363        C  0.94811832  0.40626823  0.73053344     0.02910
C364        C  0.98614718  0.40922817  0.71493085     0.00590
C365        C  0.01953783  0.41264598  0.73697334    -0.11140
C366        C  0.01567405  0.41279630  0.77392831     0.02800
H367        H  0.91488995  0.40539862  0.77924039     0.15780
H368        H  0.04881309  0.41483603  0.72531495     0.15780
C369        C  0.05114482  0.41598163  0.79536865     0.37430
C370        C  0.91251844  0.40266357  0.70937259     0.37340
N371        N  0.07958006  0.41841226  0.81255046    -0.42910
N372        N  0.88402207  0.39964412  0.69243051    -0.42910
C373        C  0.12153824  0.30446563  0.54413602     0.00680
C374        C  0.09548954  0.31717289  0.52012482    -0.11200
C375        C  0.06885742  0.33683286  0.53137150     0.02910
C376        C  0.06795905  0.34431639  0.56736810     0.00590
C377        C  0.09376244  0.33171763  0.59148853    -0.11140
C378        C  0.12012364  0.31176780  0.58037878     0.02800
H379        H  0.09612930  0.31196784  0.49222571     0.15780
H380        H  0.09334413  0.33753399  0.61918292     0.15780
C381        C  0.14579821  0.29974065  0.60674558     0.37430
C382        C  0.04455820  0.35015174  0.50504142     0.37340
N383        N  0.16624591  0.29012307  0.62800354    -0.42910
N384        N  0.02528700  0.36091909  0.48389432    -0.42910
C385        C  0.87384630  0.43642568  0.58175629     0.00680
C386        C  0.86947234  0.46418501  0.57806861    -0.11200
C387        C  0.83342540  0.47547325  0.56726748     0.02910
C388        C  0.80029916  0.45895110  0.56039495     0.00590
C389        C  0.80407246  0.43123995  0.56492315    -0.11140
C390        C  0.84038471  0.41988026  0.57579917     0.02800
H391        H  0.89490593  0.47721441  0.58202812     0.15780
H392        H  0.77876455  0.41842388  0.55940083     0.15780
C393        C  0.84226656  0.39137321  0.58085804     0.37430
C394        C  0.83251075  0.50380618  0.56015908     0.37340
N395        N  0.84365651  0.36852595  0.58508436    -0.42910
N396        N  0.83194263  0.02643994  0.55411854    -0.42910
C397        C  0.99035261  0.08270426  0.28792371     0.00680
C398        C  0.96185118  0.09995394  0.27265709    -0.11200
C399        C  0.95457660  0.10008917  0.23605021     0.02910
C400        C  0.97537779  0.08236718  0.21404184     0.00590
C401        C  0.00400616  0.06532490  0.22888189    -0.11140
C402        C  0.01216017  0.06560572  0.26533552     0.02800
H403        H  0.94482594  0.11328354  0.28933777     0.15780
H404        H  0.02074000  0.05214487  0.21173244     0.15780
C405        C  0.04349092  0.04842013  0.27835700     0.37430
C406        C  0.92476132  0.11793746  0.22179370     0.37340
N407        N  0.06884386  0.03475218  0.28858995    -0.42910
N408        N  0.90080815  0.13218855  0.21035588    -0.42910
C409        C  0.06964581  0.14747077  0.43442262     0.00680
C410        C  0.10774859  0.14980527  0.41932115    -0.11200
C411        C  0.13426002  0.16986332  0.42997478     0.02910
C412        C  0.12291686  0.18814523  0.45641843     0.00590
C413        C  0.08476593  0.18614527  0.47120042    -0.11140
C414        C  0.05806648  0.16624431  0.46038136     0.02800
H415        H  0.11726370  0.13562151  0.39942839     0.15780
H416        H  0.07582583  0.20013917  0.49156148     0.15780
C417        C  0.01963228  0.16529219  0.47730659     0.37430
C418        C  0.17369104  0.17015803  0.41487563     0.37340
N419        N  0.98887290  0.16467281  0.49097096    -0.42910
N420        N  0.20533341  0.17028815  0.40287447    -0.42910
C421        C  0.80181191  0.03265164  0.44604508     0.00680
C422        C  0.80523157  0.06016889  0.43958801    -0.11200
C423        C  0.84169739  0.07139615  0.42915147     0.02910
C424        C  0.87557469  0.05494327  0.42568682     0.00590
C425        C  0.87169709  0.02738658  0.43165844    -0.11140
C426        C  0.83551153  0.01622131  0.44196531     0.02800
H427        H  0.77946410  0.07291353  0.44300768     0.15780
H428        H  0.89753376  0.01450826  0.42964224     0.15780
C429        C  0.83481897  0.98823908  0.45126400     0.37430
C430        C  0.84324650  0.09957415  0.42144321     0.37340
N431        N  0.83442854  0.46590525  0.45905112    -0.42910
N432        N  0.84435430  0.12214037  0.41503075    -0.42910
C433        C  0.02974810  0.01391430  0.47203069     0.00680
C434        C  0.00253056  0.49312770  0.46700349    -0.11200
C435        C  0.99871582  0.47272330  0.49194885     0.02910
C436        C  0.02402246  0.47204462  0.52219509     0.00590
C437        C  0.05214637  0.49259042  0.52678204    -0.11140
C438        C  0.05485893  0.01361694  0.50214214     0.02800
H439        H  0.98208039  0.99383082  0.44459860     0.15780
H440        H  0.07155051  0.49246624  0.54987273     0.15780
C441        C  0.08372192  0.03449800  0.50802317     0.37430
C442        C  0.96587504  0.45436052  0.48726326     0.37340
N443        N  0.10700090  0.05118688  0.51262090    -0.42910
N444        N  0.93922704  0.43993793  0.48367617    -0.42910
O445        O  0.02443540  0.53454489  0.41487750    -0.56980
C446        C  0.99475321  0.58222844  0.32723118     0.75650
O447        O  0.92767789  0.58860396  0.42403860    -0.58140
C448        C  0.02565242  0.53716823  0.44830239     0.75620
C449        C  0.04400583  0.62465379  0.42354367     0.78010
Cd450      Cd  0.99707368  0.57923301  0.40332930     1.37460
O451        O  0.01854948  0.56665795  0.34330996    -0.56980
O452        O  0.05824911  0.60528623  0.40620608    -0.55790
C453        C  0.91578269  0.56512589  0.41693506     0.77970
O454        O  0.00728218  0.62316603  0.43114299    -0.58160
O455        O  0.97363679  0.59707121  0.34666396    -0.56610
O456        O  0.01831142  0.56011199  0.46051697    -0.56600
O457        O  0.94090676  0.54972764  0.40297751    -0.55770
O458        O  0.02861522  0.95429769  0.58206322    -0.56980
C459        C  0.99146185  0.90930232  0.67598565     0.75650
O460        O  0.92537724  0.90240014  0.58298212    -0.58140
C461        C  0.01938604  0.95094073  0.54960258     0.75620
C462        C  0.04240169  0.86631403  0.57985400     0.78010
Cd463      Cd  0.99568651  0.91148745  0.60038872     1.37460
O464        O  0.01728002  0.92394233  0.66087911    -0.56980
O465        O  0.05603332  0.88415690  0.60033169    -0.55790
C466        C  0.91432190  0.92611112  0.58978707     0.77970
O467        O  0.00632179  0.86862594  0.57011925    -0.58160
O468        O  0.96985620  0.89495435  0.65606821    -0.56610
O469        O  0.00399981  0.92873764  0.54163368    -0.56600
O470        O  0.94047531  0.94157664  0.60256708    -0.55770
O471        O  0.75036987  0.49964294  0.45168587    -0.56980
C472        C  0.65144838  0.95721802  0.47113787     0.75650
O473        O  0.74911338  0.99208676  0.55337053    -0.58140
C474        C  0.76495645  0.52177535  0.46146476     0.75620
C475        C  0.65051531  0.53452142  0.53100994     0.78010
Cd476      Cd  0.70402800  0.99594849  0.50181446     1.37470
O477        O  0.66127924  0.97780207  0.45365239    -0.56980
O478        O  0.66490171  0.53660410  0.50023016    -0.55790
C479        C  0.76396393  0.97001935  0.54384296     0.77970
O480        O  0.65991722  0.51389126  0.54866386    -0.58160
O481        O  0.66491622  0.95531111  0.50240575    -0.56610
O482        O  0.74823103  0.53324702  0.48714320    -0.56600
O483        O  0.74793342  0.95871441  0.51750647    -0.55770
O484        O  0.52424919  0.70562643  0.58806099    -0.56980
C485        C  0.49097445  0.65909429  0.67579084     0.75650
O486        O  0.42836046  0.65023604  0.57317272    -0.58140
C487        C  0.52137281  0.70405260  0.55456141     0.75620
C488        C  0.54470113  0.61713249  0.58050530     0.78010
Cd489      Cd  0.49467448  0.66131074  0.59948918     1.37470
O490        O  0.51294525  0.67603255  0.66023862    -0.56980
O491        O  0.55862559  0.63907896  0.59160063    -0.55790
C492        C  0.41183699  0.67111744  0.58517680     0.77970
O493        O  0.50706703  0.61528214  0.57867123    -0.58160
O494        O  0.47323746  0.64257398  0.65593211    -0.56610
O495        O  0.50920200  0.68206109  0.54215314    -0.56600
O496        O  0.43368667  0.68635917  0.60345870    -0.55770
O497        O  0.52791295  0.78725024  0.41981178    -0.56980
C498        C  0.49241196  0.83016722  0.32743280     0.75650
O499        O  0.43307754  0.84226613  0.43492608    -0.58140
C500        C  0.52089669  0.78971719  0.45270965     0.75620
C501        C  0.54611304  0.87433533  0.42038878     0.78010
Cd502      Cd  0.49471332  0.83033735  0.40352675     1.37460
O503        O  0.50362655  0.80970719  0.34465002    -0.56980
O504        O  0.55947169  0.85146170  0.41264721    -0.55790
C505        C  0.41212809  0.82425850  0.42040037     0.77970
O506        O  0.50858734  0.87711539  0.41945346    -0.58160
O507        O  0.48462349  0.85078696  0.34540452    -0.56610
O508        O  0.50411207  0.81115600  0.46184211    -0.56600
O509        O  0.42841521  0.81095175  0.39607034    -0.55770
O510        O  0.24088004  0.72896531  0.55369382    -0.56980
C511        C  0.15008571  0.78445845  0.53008165     0.75650
O512        O  0.24099346  0.76624213  0.44990981    -0.58140
C513        C  0.26147707  0.71232630  0.53633797     0.75620
C514        C  0.15070096  0.70839452  0.47072915     0.78010
Cd515      Cd  0.20482598  0.74634832  0.50109231     1.37470
O516        O  0.16971579  0.76873698  0.54992976    -0.56980
O517        O  0.15031701  0.71442560  0.50328416    -0.55790
C518        C  0.26392298  0.78019108  0.46932270     0.77970
O519        O  0.17597508  0.72040380  0.45155875    -0.58160
O520        O  0.15604714  0.78228923  0.49706753    -0.56610
O521        O  0.25351994  0.71040155  0.50366260    -0.56600
O522        O  0.25723797  0.77939923  0.50225048    -0.55770
O523        O  0.93513421  0.95445393  0.92189798    -0.56980
C524        C  0.97246071  0.91065212  0.82821594     0.75650
O525        O  0.03539784  0.90074549  0.92566448    -0.58140
C526        C  0.94282010  0.95099358  0.95463324     0.75620
C527        C  0.91751059  0.86683753  0.92017758     0.78010
Cd528      Cd  0.96752569  0.91175183  0.90390025     1.37470
O529        O  0.94642894  0.92500630  0.84333210    -0.56980
O530        O  0.90446538  0.88782394  0.90554404    -0.55790
C531        C  0.04996587  0.92306094  0.91615013     0.77970
O532        O  0.95466519  0.86632499  0.92669046    -0.58160
O533        O  0.99442024  0.89646553  0.84799728    -0.56610
O534        O  0.95891450  0.92904719  0.96295194    -0.56600
O535        O  0.02637062  0.93908534  0.90085461    -0.55770
O536        O  0.95913940  0.56133496  0.15894205    -0.56980
C537        C  0.94254326  0.53699826  0.05559056     0.75650
O538        O  0.95504320  0.62634628  0.08047310    -0.58140
C539        C  0.96987648  0.58219154  0.17533328     0.75620
C540        C  0.05204012  0.57354591  0.08399141     0.78010
Cd541      Cd  0.96879835  0.58035327  0.09943561     1.37470
O542        O  0.94172867  0.53531506  0.08912277    -0.56980
O543        O  0.03409619  0.56042654  0.10757474    -0.55790
C544        C  0.91745220  0.62381983  0.08081516     0.77970
O545        O  0.03195344  0.59163976  0.06865249    -0.58160
O546        O  0.95170069  0.55940497  0.04258543    -0.56610
O547        O  0.97755621  0.60258269  0.15681141    -0.56600
O548        O  0.90393465  0.60128273  0.09016075    -0.55770
O549        O  0.29684767  0.97372077  0.05019040    -0.56980
C550        C  0.20006627  0.52819393  0.03672581     0.75650
O551        O  0.29938299  0.51614352  0.95376273    -0.58140
C552        C  0.31320276  0.95712806  0.02946755     0.75620
C553        C  0.19993562  0.96469519  0.96561974     0.78010
Cd554      Cd  0.25890154  0.99630528  0.00168426     1.37470
O555        O  0.22189012  0.51224245  0.05441042    -0.56980
O556        O  0.20875754  0.96130096  0.99794247    -0.55790
C557        C  0.31131821  0.53563451  0.97236479     0.77970
O558        O  0.22008404  0.98210129  0.94906876    -0.58160
O559        O  0.20729765  0.52985748  0.00392189    -0.56610
O560        O  0.30503426  0.95956213  0.99688209    -0.56600
O561        O  0.29962201  0.53646451  0.00415068    -0.55770
O562        O  0.43725297  0.70428814  0.91847942    -0.56980
C563        C  0.47168649  0.66114411  0.82844433     0.75650
O564        O  0.53133575  0.64946574  0.93885957    -0.58140
C565        C  0.44377335  0.70256077  0.95160820     0.75620
C566        C  0.41839730  0.61742227  0.92200893     0.78010
Cd567      Cd  0.47058758  0.66081907  0.90459415     1.37460
O568        O  0.46681359  0.68249249  0.84587081    -0.56980
O569        O  0.40553221  0.64052570  0.91459138    -0.55790
C570        C  0.55373033  0.66539038  0.92210593     0.77970
O571        O  0.45579807  0.61408322  0.92042863    -0.58160
O572        O  0.47354275  0.63966583  0.84603372    -0.56610
O573        O  0.46068167  0.68143033  0.96199307    -0.56600
O574        O  0.53860080  0.67692319  0.89549501    -0.55770
O575        O  0.43792841  0.78698598  0.08595213    -0.56980
C576        C  0.47147247  0.83269774  0.17469298     0.75650
O577        O  0.53699326  0.83989430  0.07264339    -0.58140
C578        C  0.44240159  0.78844762  0.05259382     0.75620
C579        C  0.42009476  0.87460487  0.07875601     0.78010
Cd580      Cd  0.46971424  0.83053758  0.09849193     1.37460
O581        O  0.45143273  0.81495998  0.15852346    -0.56980
O582        O  0.40598936  0.85204544  0.08697575    -0.55790
C583        C  0.55160927  0.81840530  0.08499241     0.77970
O584        O  0.45764385  0.87727755  0.08013630    -0.58160
O585        O  0.48867979  0.84979672  0.15542890    -0.56610
O586        O  0.45663818  0.81006697  0.04076188    -0.56600
O587        O  0.52901412  0.80455167  0.10428198    -0.55770
O588        O  0.72350311  0.76005473  0.05819758    -0.56980
C589        C  0.81169603  0.70717080  0.03221448     0.75650
O590        O  0.72068739  0.72677935  0.95462939    -0.58140
C591        C  0.70587350  0.77972780  0.04403104     0.75620
C592        C  0.81389832  0.78260234  0.96988128     0.78010
Cd593      Cd  0.75954974  0.74720397  0.00459995     1.37470
O594        O  0.80408301  0.72795053  0.05006705    -0.56980
O595        O  0.81944274  0.77423617  0.00116870    -0.55790
C596        C  0.69709954  0.71447041  0.97525319     0.77970
O597        O  0.78311415  0.77411253  0.95376820    -0.58160
O598        O  0.79592569  0.70544172  0.00174046    -0.56610
O599        O  0.71721495  0.78657894  0.01345721    -0.56600
O600        O  0.70397624  0.71701278  0.00798963    -0.55770
C601        C  0.66980404  0.79126926  0.05982738     0.00680
C602        C  0.64055385  0.77315332  0.07051877    -0.11200
C603        C  0.60204088  0.78159431  0.07815596     0.02910
C604        C  0.59247842  0.80909844  0.07698003     0.00590
C605        C  0.62227122  0.82747190  0.06747287    -0.11140
C606        C  0.66070535  0.81870874  0.05856127     0.02800
H607        H  0.64700325  0.75197257  0.07034657     0.15780
H608        H  0.61544493  0.84858324  0.06660594     0.15780
C609        C  0.69040669  0.83811214  0.04867521     0.37430
C610        C  0.57234206  0.76116174  0.08383866     0.37340
N611        N  0.71433410  0.85366579  0.04097015    -0.42910
N612        N  0.54863251  0.74469491  0.08791250    -0.42910
C613        C  0.59385910  0.67265560  0.93512413     0.00680
C614        C  0.59874418  0.67633039  0.97165119    -0.11200
C615        C  0.63232630  0.68925326  0.98538003     0.02910
C616        C  0.66262408  0.69846085  0.96222714     0.00590
C617        C  0.65882942  0.69309986  0.92576817    -0.11140
C618        C  0.62483625  0.68033076  0.91213083     0.02800
H619        H  0.57489644  0.67069202  0.98947761     0.15780
H620        H  0.68205301  0.69937209  0.90771964     0.15780
C621        C  0.62261072  0.67502435  0.87456841     0.37430
C622        C  0.63312265  0.69403544  0.02314990     0.37340
N623        N  0.62106546  0.67049319  0.84451806    -0.42910
N624        N  0.63332430  0.69779105  0.05341883    -0.42910
C625        C  0.43400989  0.76575909  0.02837114     0.00680
C626        C  0.42558011  0.77105262  0.99246356    -0.11200
C627        C  0.42525656  0.75057106  0.96710683     0.02910
C628        C  0.43456481  0.72416409  0.97742815     0.00590
C629        C  0.43973143  0.71866810  0.01379331    -0.11140
C630        C  0.43935729  0.73901496  0.03916315     0.02800
H631        H  0.42058140  0.79144225  0.98393567     0.15780
H632        H  0.44598315  0.69846424  0.02245320     0.15780
C633        C  0.44773242  0.73192925  0.07558672     0.37430
C634        C  0.41686527  0.75756603  0.93068893     0.37340
N635        N  0.45448286  0.72616289  0.10473232    -0.42910
N636        N  0.40985032  0.76323691  0.90155951    -0.42910
C637        C  0.33754624  0.55655265  0.95796241     0.00680
C638        C  0.37175044  0.54921484  0.93919305    -0.11200
C639        C  0.39868501  0.56859010  0.92720519     0.02910
C640        C  0.39083545  0.59592285  0.93314374     0.00590
C641        C  0.35584241  0.60316081  0.95095390    -0.11140
C642        C  0.32954817  0.58380205  0.96370472     0.02800
H643        H  0.37795611  0.52827890  0.93470645     0.15780
H644        H  0.34938750  0.62403612  0.95565691     0.15780
C645        C  0.29409864  0.59243671  0.98193904     0.37430
C646        C  0.43369447  0.55984152  0.90850619     0.37340
N647        N  0.26566980  0.59930428  0.99652033    -0.42910
N648        N  0.46176898  0.55275944  0.89357664    -0.42910
C649        C  0.34040085  0.93583705  0.04225884     0.00680
C650        C  0.36233639  0.93962281  0.07374777    -0.11200
C651        C  0.38911228  0.92010607  0.08592838     0.02910
C652        C  0.39366740  0.89622736  0.06676358     0.00590
C653        C  0.37129558  0.89215577  0.03585290    -0.11140
C654        C  0.34509276  0.91168227  0.02328823     0.02800
H655        H  0.35889206  0.95793035  0.08865904     0.15780
H656        H  0.37446120  0.87361113  0.02136362     0.15780
C657        C  0.32265347  0.90588005  0.99140689     0.37430
C658        C  0.41050513  0.92452391  0.11870718     0.37340
N659        N  0.30476226  0.90118854  0.96584269    -0.42910
N660        N  0.42755126  0.92796002  0.14506442    -0.42910
C661        C  0.89037604  0.64568798  0.06993981     0.00680
C662        C  0.85366743  0.63896682  0.05428459    -0.11200
C663        C  0.82759348  0.65871454  0.04204072     0.02910
C664        C  0.83772717  0.68585565  0.04603360     0.00590
C665        C  0.87373313  0.69269677  0.06270483    -0.11140
C666        C  0.90028671  0.67291112  0.07428092     0.02800
H667        H  0.84560106  0.61817751  0.05094568     0.15780
H668        H  0.88154587  0.71353996  0.06593354     0.15780
C669        C  0.93701882  0.68116084  0.09106402     0.37430
C670        C  0.79016671  0.65060764  0.02628896     0.37340
N671        N  0.96645451  0.68783210  0.10448744    -0.42910
N672        N  0.76014714  0.64416813  0.01371422    -0.42910
C673        C  0.09351215  0.56656095  0.07417665     0.00680
C674        C  0.11547345  0.54994522  0.09716520    -0.11200
C675        C  0.15148841  0.53838426  0.08666367     0.02910
C676        C  0.16636733  0.54338870  0.05230245     0.00590
C677        C  0.14591813  0.56166417  0.03042957    -0.11140
C678        C  0.10987143  0.57314295  0.04088665     0.02800
H679        H  0.10362959  0.54500184  0.12306922     0.15780
H680        H  0.15712980  0.56614730  0.00417149     0.15780
C681        C  0.08923339  0.59001091  0.01573812     0.37430
C682        C  0.17112787  0.52051677  0.11119602     0.37340
N683        N  0.07274818  0.60344419  0.99545020    -0.42910
N684        N  0.18667391  0.50622739  0.13102756    -0.42910
C685        C  0.89072071  0.84431800  0.92991451     0.00680
C686        C  0.90692944  0.82240582  0.94829573    -0.11200
C687        C  0.88268352  0.80162351  0.96046070     0.02910
C688        C  0.84127935  0.80224468  0.95387233     0.00590
C689        C  0.82517274  0.82339560  0.93420717    -0.11140
C690        C  0.84919042  0.84448690  0.92258275     0.02800
H691        H  0.93861763  0.82169204  0.95391707     0.15780
H692        H  0.79331238  0.82407606  0.92928760     0.15780
C693        C  0.82976118  0.86627216  0.90432863     0.37430
C694        C  0.90113350  0.77974371  0.97932417     0.37340
N695        N  0.81391441  0.88371776  0.88991282    -0.42910
N696        N  0.91589671  0.76218565  0.99439050    -0.42910
C697        C  0.16590876  0.95046822  0.94891946     0.00680
C698        C  0.14698973  0.96229263  0.91960958    -0.11200
C699        C  0.11030511  0.95281835  0.90712375     0.02910
C700        C  0.09178969  0.93083153  0.92399669     0.00590
C701        C  0.11246329  0.91753743  0.95122394    -0.11140
C702        C  0.14912606  0.92712004  0.96380192     0.02800
H703        H  0.15980403  0.97992356  0.90749395     0.15780
H704        H  0.09913089  0.90032540  0.96393078     0.15780
C705        C  0.16841795  0.91275559  0.99232566     0.37430
C706        C  0.09217674  0.96658854  0.87747751     0.37340
N707        N  0.18384717  0.90117492  0.01513774    -0.42910
N708        N  0.07776259  0.97771435  0.85375590    -0.42910
C709        C  0.93655994  0.97182057  0.98207878     0.00680
C710        C  0.95861068  0.96960783  0.01378821    -0.11200
C711        C  0.95918764  0.99014159  0.03873558     0.02910
C712        C  0.93689235  0.51350100  0.03259747     0.00590
C713        C  0.91336543  0.51543565  0.00178029    -0.11140
C714        C  0.91264365  0.99470316  0.97672437     0.02800
H715        H  0.97740676  0.95235710  0.01837470     0.15780
H716        H  0.89614483  0.53338015  0.99697809     0.15780
C717        C  0.88707906  0.99742918  0.94604412     0.37430
C718        C  0.98617961  0.98785161  0.06859316     0.37340
N719        N  0.86630408  0.99956595  0.92161246    -0.42910
N720        N  0.00809551  0.98619515  0.09229159    -0.42910
C721        C  0.47585668  0.83281713  0.21395001     0.00680
C722        C  0.46766072  0.80926393  0.23282790    -0.11200
C723        C  0.47356869  0.80775983  0.26959256     0.02910
C724        C  0.48773020  0.83022070  0.28835976     0.00590
C725        C  0.49523527  0.85391091  0.26970075    -0.11140
C726        C  0.48974073  0.85539217  0.23290810     0.02800
H727        H  0.45694722  0.79179700  0.21880490     0.15780
H728        H  0.50563094  0.87138149  0.28394570     0.15780
C729        C  0.49799241  0.88053657  0.21568733     0.37430
C730        C  0.46314159  0.78329156  0.28752399     0.37340
N731        N  0.50469153  0.90071795  0.20201923    -0.42910
N732        N  0.45461135  0.76371524  0.30189905    -0.42910
C733        C  0.37171119  0.81749999  0.43269181     0.00680
C734        C  0.34265350  0.80966804  0.40787967    -0.11200
C735        C  0.30616299  0.79887521  0.41886753     0.02910
C736        C  0.29857624  0.79540129  0.45544904     0.00590
C737        C  0.32708740  0.80453865  0.48011519    -0.11140
C738        C  0.36340492  0.81525304  0.46915918     0.02800
H739        H  0.34892584  0.81135515  0.37976947     0.15780
H740        H  0.32208100  0.80196817  0.50830396     0.15780
C741        C  0.39311473  0.82113449  0.49592768     0.37430
C742        C  0.27756654  0.79129948  0.39199308     0.37510
N743        N  0.41703920  0.82556521  0.51734031    -0.42910
N744        N  0.25468963  0.78537092  0.37032403    -0.42910
C745        C  0.48570950  0.65897799  0.71500719     0.00680
C746        C  0.51001558  0.67562504  0.73592215    -0.11200
C747        C  0.50538911  0.67690367  0.77278446     0.02910
C748        C  0.47620086  0.66118022  0.78955048     0.00590
C749        C  0.45219407  0.64430703  0.76902099    -0.11140
C750        C  0.45615947  0.64334321  0.73206910     0.02800
H751        H  0.53283463  0.68769865  0.72351427     0.15780
H752        H  0.42973259  0.63217297  0.78189231     0.15780
C753        C  0.42849302  0.62675011  0.71260959     0.37430
C754        C  0.53205486  0.69367955  0.79302455     0.37340
N755        N  0.40607490  0.61356952  0.69712626    -0.42910
N756        N  0.55345790  0.70707139  0.80928507    -0.42910
C757        C  0.36982710  0.67828360  0.57707757     0.00680
C758        C  0.35065771  0.66626868  0.54803240    -0.11200
C759        C  0.31380012  0.67568698  0.53566583     0.02910
C760        C  0.29531965  0.69758140  0.55258440     0.00590
C761        C  0.31273883  0.70790212  0.58354832    -0.11140
C762        C  0.34956959  0.69858040  0.59585679     0.02800
H763        H  0.36530953  0.65028935  0.53384154     0.15780
H764        H  0.29866418  0.72437943  0.59719946     0.15780
C765        C  0.36606393  0.71083869  0.62733674     0.37430
C766        C  0.29617205  0.66276938  0.50518011     0.37340
N767        N  0.37922541  0.72073447  0.65251592    -0.42910
N768        N  0.28208164  0.65234931  0.48078488    -0.42910
C769        C  0.52907922  0.72705597  0.53081517     0.00680
C770        C  0.54296200  0.72240768  0.49627668    -0.11200
C771        C  0.54358379  0.74288141  0.47080687     0.02910
C772        C  0.52917411  0.76853515  0.47957175     0.00590
C773        C  0.51805170  0.77348414  0.51490522    -0.11140
C774        C  0.51781052  0.75316455  0.54034840     0.02800
H775        H  0.55220126  0.70248367  0.48883380     0.15780
H776        H  0.50738872  0.79305567  0.52245713     0.15780
C777        C  0.50219707  0.75925184  0.57502140     0.37430
C778        C  0.55810325  0.73665465  0.43584553     0.37340
N779        N  0.48946686  0.76413190  0.60270940    -0.42910
N780        N  0.57000602  0.73161273  0.40791397    -0.42910
C781        C  0.62438048  0.55547927  0.54533489     0.00680
C782        C  0.58818047  0.54839049  0.56116226    -0.11200
C783        C  0.56149138  0.56804324  0.57269474     0.02910
C784        C  0.57154761  0.59531653  0.56930210     0.00590
C785        C  0.60840886  0.60223661  0.55447163    -0.11140
C786        C  0.63452384  0.58267967  0.54215714     0.02800
H787        H  0.58030357  0.52750480  0.56367556     0.15780
H788        H  0.61656110  0.62306832  0.55180556     0.15780
C789        C  0.67197331  0.59103976  0.52703757     0.37430
C790        C  0.52446626  0.55964018  0.58844264     0.37340
N791        N  0.70198593  0.59769400  0.51493901    -0.42910
N792        N  0.49478125  0.55285599  0.60103153    -0.42910
C793        C  0.62577250  0.93614691  0.45613667     0.00680
C794        C  0.59049601  0.94315346  0.43835980    -0.11200
C795        C  0.56396899  0.92346241  0.42633049     0.02910
C796        C  0.57328838  0.89618757  0.43123488     0.00590
C797        C  0.60937600  0.88932991  0.44789391    -0.11140
C798        C  0.63530043  0.90895138  0.46066021     0.02800
H799        H  0.58310596  0.96403331  0.43479351     0.15780
H800        H  0.61698239  0.86851271  0.45177705     0.15780
C801        C  0.67186824  0.90062917  0.47777819     0.37430
C802        C  0.52776753  0.93184734  0.40876845     0.37340
N803        N  0.70116489  0.89399260  0.49148369    -0.42910
N804        N  0.49873271  0.93862498  0.39475123    -0.42910
C805        C  0.97760254  0.91047835  0.78939555     0.00680
C806        C  0.94413715  0.90741140  0.76745557    -0.11200
C807        C  0.94811832  0.90626824  0.73053344     0.02910
C808        C  0.98614718  0.90922819  0.71493086     0.00590
C809        C  0.01953783  0.91264602  0.73697335    -0.11140
C810        C  0.01567405  0.91279633  0.77392832     0.02800
H811        H  0.91488995  0.90539863  0.77924040     0.15780
H812        H  0.04881309  0.91483607  0.72531495     0.15780
C813        C  0.05114481  0.91598167  0.79536866     0.37430
C814        C  0.91251844  0.90266357  0.70937259     0.37340
N815        N  0.07958005  0.91841231  0.81255047    -0.42910
N816        N  0.88402208  0.89964412  0.69243051    -0.42910
C817        C  0.12153825  0.80446563  0.54413602     0.00680
C818        C  0.09548956  0.81717290  0.52012483    -0.11200
C819        C  0.06885743  0.83683287  0.53137150     0.02910
C820        C  0.06795906  0.84431639  0.56736810     0.00590
C821        C  0.09376245  0.83171763  0.59148854    -0.11140
C822        C  0.12012364  0.81176780  0.58037879     0.02800
H823        H  0.09612932  0.81196785  0.49222571     0.15780
H824        H  0.09334413  0.83753399  0.61918292     0.15780
C825        C  0.14579821  0.79974064  0.60674558     0.37430
C826        C  0.04455822  0.85015175  0.50504142     0.37340
N827        N  0.16624589  0.79012306  0.62800355    -0.42910
N828        N  0.02528703  0.86091911  0.48389433    -0.42910
C829        C  0.87384631  0.93642569  0.58175628     0.00680
C830        C  0.86947236  0.96418502  0.57806857    -0.11200
C831        C  0.83342542  0.97547324  0.56726744     0.02910
C832        C  0.80029917  0.95895110  0.56039493     0.00590
C833        C  0.80407247  0.93123996  0.56492316    -0.11140
C834        C  0.84038471  0.91988026  0.57579917     0.02800
H835        H  0.89490595  0.97721441  0.58202806     0.15780
H836        H  0.77876454  0.91842388  0.55940085     0.15780
C837        C  0.84226656  0.89137322  0.58085806     0.37430
C838        C  0.83251077  0.00380618  0.56015901     0.37340
N839        N  0.84365650  0.86852596  0.58508441    -0.42910
N840        N  0.83194261  0.52643995  0.55411863    -0.42910
C841        C  0.99035262  0.58270426  0.28792371     0.00680
C842        C  0.96185117  0.59995392  0.27265709    -0.11200
C843        C  0.95457659  0.60008914  0.23605021     0.02910
C844        C  0.97537781  0.58236718  0.21404184     0.00590
C845        C  0.00400621  0.56532491  0.22888188    -0.11140
C846        C  0.01216022  0.56560573  0.26533552     0.02800
H847        H  0.94482591  0.61328350  0.28933777     0.15780
H848        H  0.02074007  0.55214490  0.21173243     0.15780
C849        C  0.04349099  0.54842017  0.27835699     0.37430
C850        C  0.92476129  0.61793742  0.22179370     0.37340
N851        N  0.06884395  0.53475223  0.28858994    -0.42910
N852        N  0.90080809  0.63218850  0.21035589    -0.42910
C853        C  0.06964583  0.64747077  0.43442263     0.00680
C854        C  0.10774862  0.64980526  0.41932116    -0.11200
C855        C  0.13426004  0.66986331  0.42997479     0.02910
C856        C  0.12291688  0.68814523  0.45641843     0.00590
C857        C  0.08476595  0.68614527  0.47120042    -0.11140
C858        C  0.05806649  0.66624431  0.46038135     0.02800
H859        H  0.11726373  0.63562150  0.39942840     0.15780
H860        H  0.07582584  0.70013917  0.49156148     0.15780
C861        C  0.01963229  0.66529219  0.47730658     0.37430
C862        C  0.17369106  0.67015803  0.41487564     0.37340
N863        N  0.98887290  0.66467281  0.49097095    -0.42910
N864        N  0.20533344  0.67028814  0.40287449    -0.42910
C865        C  0.80181193  0.53265163  0.44604509     0.00680
C866        C  0.80523159  0.56016888  0.43958799    -0.11200
C867        C  0.84169741  0.57139614  0.42915145     0.02910
C868        C  0.87557471  0.55494327  0.42568683     0.00590
C869        C  0.87169712  0.52738658  0.43165849    -0.11140
C870        C  0.83551157  0.51622130  0.44196536     0.02800
H871        H  0.77946411  0.57291352  0.44300763     0.15780
H872        H  0.89753380  0.51450826  0.42964231     0.15780
C873        C  0.83481901  0.48823908  0.45126408     0.37430
C874        C  0.84324651  0.59957413  0.42144315     0.37340
N875        N  0.83442850  0.96590524  0.45905101    -0.42910
N876        N  0.84435431  0.62214035  0.41503067    -0.42910
C877        C  0.02974812  0.51391430  0.47203068     0.00680
C878        C  0.00253054  0.99312771  0.46700350    -0.11200
C879        C  0.99871580  0.97272331  0.49194886     0.02910
C880        C  0.02402246  0.97204463  0.52219510     0.00590
C881        C  0.05214636  0.99259043  0.52678204    -0.11140
C882        C  0.05485894  0.51361693  0.50214215     0.02800
H883        H  0.98208042  0.49383081  0.44459859     0.15780
H884        H  0.07155051  0.99246624  0.54987272     0.15780
C885        C  0.08372193  0.53449799  0.50802317     0.37430
C886        C  0.96587502  0.95436052  0.48726327     0.37340
N887        N  0.10700091  0.55118687  0.51262091    -0.42910
N888        N  0.93922702  0.93993794  0.48367619    -0.42910
loop_ 
_geom_bond_atom_site_label_1 
_geom_bond_atom_site_label_2 
_geom_bond_distance 
_geom_bond_site_symmetry_2 
_ccdc_geom_bond_type 
O1            C4   1.268       .  A
O1           Cd6   2.460   1_455  S
C2           O11   1.266       .  A
C2            O7   1.269   1_655  A
C2          C397   1.489       .  S
O3            C9   1.271       .  A
O3           Cd6   2.507       .  S
C4           O12   1.265       .  A
C4          C433   1.475       .  S
C5           O10   1.270       .  A
C5            O8   1.267       .  A
C5          C409   1.488       .  S
Cd6          O13   2.396       .  S
Cd6          O12   2.461   1_655  S
Cd6          O11   2.442       .  S
Cd6           O7   2.463   1_655  S
Cd6          O10   2.464   1_655  S
Cd6           O8   2.436   1_655  S
C9           O13   1.262       .  A
C9          C424   1.482       .  S
O14          C17   1.273       .  A
O14         Cd19   2.512   1_455  S
C15          O24   1.266       .  A
C15          O20   1.272   1_655  A
C15         C364   1.481       .  S
O16          C22   1.273       .  A
O16         Cd19   2.489       .  S
C17          O25   1.263       .  A
C17         C436   1.487       .  S
C18          O23   1.269       .  A
C18          O21   1.266       .  A
C18         C376   1.477       .  S
Cd19         O26   2.393       .  S
Cd19         O25   2.395   1_655  S
Cd19         O24   2.422       .  S
Cd19         O20   2.471   1_655  S
Cd19         O23   2.463   1_655  S
Cd19         O21   2.447   1_655  S
C22          O26   1.265       .  A
C22         C385   1.484       .  S
O27          C30   1.267   1_565  A
O27        Cd476   2.463       .  S
C28          O37   1.264       .  A
C28          O33   1.269       .  A
C28         C349   1.475       .  S
O29          C35   1.267       .  A
O29         Cd32   2.465       .  S
C30          O38   1.262       .  A
C30         C421   1.474       .  S
C31          O36   1.268       .  A
C31          O34   1.264       .  A
C31         C337   1.475       .  S
Cd32         O39   2.449       .  S
Cd32         O37   2.424       .  S
Cd32         O33   2.482       .  S
Cd32        O471   2.463       .  S
Cd32        O482   2.451       .  S
Cd32        O480   2.483       .  S
Cd32        O478   2.427       .  S
O34        Cd476   2.427   1_545  S
C35          O39   1.262       .  A
C35         C388   1.476       .  S
O36        Cd476   2.483   1_545  S
O38        Cd476   2.451   1_545  S
O40          C43   1.269       .  A
O40         Cd45   2.472       .  S
C41          O50   1.264       .  A
C41          O46   1.270       .  A
C41         C301   1.491       .  S
O42          C48   1.271       .  A
O42         Cd45   2.495       .  S
C43          O51   1.265       .  A
C43         C325   1.483       .  S
C44          O49   1.269       .  A
C44          O47   1.266       .  A
C44         C340   1.482       .  S
Cd45         O52   2.409       .  S
Cd45         O51   2.450       .  S
Cd45         O50   2.438       .  S
Cd45         O46   2.482       .  S
Cd45         O49   2.475       .  S
Cd45         O47   2.440       .  S
C48          O52   1.262       .  A
C48         C313   1.486       .  S
O53          C56   1.271       .  A
O53         Cd58   2.506       .  S
C54          O63   1.266       .  A
C54          O59   1.269       .  A
C54         C280   1.481       .  S
O55          C61   1.267       .  A
O55         Cd58   2.465       .  S
C56          O64   1.263       .  A
C56         C328   1.492       .  S
C57          O62   1.268       .  A
C57          O60   1.267       .  A
C57         C352   1.482       .  S
Cd58         O65   2.443       .  S
Cd58         O64   2.418       .  S
Cd58         O63   2.441       .  S
Cd58         O59   2.471       .  S
Cd58         O62   2.466       .  S
Cd58         O60   2.441       .  S
C61          O65   1.263       .  A
C61         C289   1.476       .  S
O66          C69   1.269       .  A
O66         Cd71   2.476       .  S
C67          O76   1.267       .  A
C67          O72   1.269       .  A
C67         C373   1.488       .  S
O68          C74   1.270       .  A
O68         Cd71   2.493       .  S
C69          O77   1.263       .  A
C69         C316   1.485       .  S
C70          O75   1.269       .  A
C70          O73   1.265       .  A
C70         C412   1.479       .  S
Cd71         O78   2.417       .  S
Cd71         O77   2.436       .  S
Cd71         O76   2.440       .  S
Cd71         O72   2.465       .  S
Cd71         O75   2.471       .  S
Cd71         O73   2.432       .  S
C74          O78   1.264       .  A
C74         C292   1.488       .  S
O79          C82   1.272       .  A
O79         Cd84   2.499       .  S
C80          O89   1.265       .  A
C80          O85   1.271       .  A
C80         C361   1.475       .  S
O81          C87   1.273       .  A
O81         Cd84   2.480   1_455  S
C82          O90   1.265       .  A
C82         C265   1.488       .  S
C83          O88   1.270       .  A
C83          O86   1.265       .  A
C83         C241   1.490       .  S
Cd84         O91   2.407   1_655  S
Cd84         O90   2.411       .  S
Cd84         O89   2.424       .  S
Cd84         O85   2.478       .  S
Cd84         O88   2.472       .  S
Cd84         O86   2.434       .  S
C87          O91   1.265       .  A
C87         C256   1.485       .  S
O92          C95   1.267       .  A
O92         Cd97   2.460       .  S
C93         O102   1.264       .  A
C93          O98   1.268       .  A
C93         C268   1.476       .  S
O94         C100   1.269       .  A
O94         Cd97   2.457       .  S
C95         O103   1.265       .  A
C95         C400   1.471       .  S
C96         O101   1.268       .  A
C96          O99   1.261       .  A
C96         C229   1.485       .  S
Cd97        O104   2.441       .  S
Cd97        O103   2.452       .  S
Cd97        O102   2.454       .  S
Cd97         O98   2.464       .  S
Cd97        O101   2.488   1_655  S
Cd97         O99   2.428   1_655  S
C100        O104   1.268       .  A
C100        C217   1.481       .  S
O105        C108   1.270       .  A
O105       Cd110   2.494       .  S
C106        O115   1.265       .  A
C106        O111   1.271       .  A
C106        C232   1.489       .  S
O107        C113   1.267       .  A
O107       Cd554   2.475   1_546  S
C108        O116   1.263   1_554  A
C108        C205   1.484       .  S
C109        O114   1.269       .  A
C109        O112   1.264       .  A
C109        C253   1.484       .  S
Cd110       O116   2.416   1_554  S
Cd110       O114   2.473   1_554  S
Cd110       O112   2.435   1_554  S
Cd110       O551   2.475   1_554  S
Cd110       O561   2.435       .  S
Cd110       O559   2.418       .  S
Cd110       O555   2.485       .  S
O111       Cd554   2.485   1_545  S
C113        O117   1.265   1_556  A
C113        C193   1.474       .  S
O115       Cd554   2.418   1_545  S
O117       Cd554   2.435   1_545  S
O118        C121   1.270       .  A
O118       Cd123   2.508       .  S
C119        O128   1.265       .  A
C119        O124   1.268       .  A
C119        C304   1.476       .  S
O120        C126   1.267       .  A
O120       Cd123   2.475       .  S
C121        O129   1.263       .  A
C121        C184   1.492       .  S
C122        O127   1.269       .  A
C122        O125   1.267       .  A
C122        C196   1.482       .  S
Cd123       O130   2.448       .  S
Cd123       O129   2.425       .  S
Cd123       O128   2.454       .  S
Cd123       O124   2.468       .  S
Cd123       O127   2.468       .  S
Cd123       O125   2.440       .  S
C126        O130   1.262       .  A
C126        C169   1.477       .  S
O131        C134   1.270       .  A
O131       Cd136   2.475       .  S
C132        O141   1.265       .  A
C132        O137   1.270       .  A
C132        C277   1.487       .  S
O133        C139   1.271       .  A
O133       Cd136   2.509       .  S
C134        O142   1.266       .  A
C134        C181   1.486       .  S
C135        O140   1.269       .  A
C135        O138   1.265       .  A
C135        C208   1.471       .  S
Cd136       O143   2.389       .  S
Cd136       O142   2.446       .  S
Cd136       O141   2.437       .  S
Cd136       O137   2.475       .  S
Cd136       O140   2.476       .  S
Cd136       O138   2.433       .  S
C139        O143   1.262       .  A
C139        C160   1.483       .  S
O144        C147   1.267       .  A
O144       Cd149   2.450       .  S
C145        O154   1.266       .  A
C145        O150   1.269       .  A
C145        C220   1.474       .  S
O146        C152   1.272       .  A
O146       Cd149   2.506   1_556  S
C147        O155   1.264       .  A
C147        C157   1.472       .  S
C148        O153   1.270       .  A
C148        O151   1.265   1_556  A
C148        C244   1.478       .  S
Cd149       O156   2.406       .  S
Cd149       O155   2.458       .  S
Cd149       O154   2.428       .  S
Cd149       O150   2.465       .  S
Cd149       O153   2.476   1_554  S
Cd149       O151   2.428       .  S
C152        O156   1.261   1_556  A
C152        C172   1.490       .  S
C157        C158   1.398       .  A
C157        C162   1.410       .  A
C158        C159   1.393       .  A
C158        H163   1.084       .  S
C159        C160   1.417       .  A
C159        C166   1.446       .  S
C160        C161   1.407       .  A
C161        C162   1.406       .  A
C161        H164   1.084       .  S
C162        C165   1.443       .  S
C165        N167   1.157       .  T
C166        N168   1.157       .  T
C169        C170   1.399       .  A
C169        C174   1.411       .  A
C170        C171   1.397       .  A
C170        H175   1.086       .  S
C171        C172   1.421       .  A
C171        C178   1.445   1_556  S
C172        C173   1.407       .  A
C173        C174   1.404       .  A
C173        H176   1.084       .  S
C174        C177   1.443       .  S
C177        N179   1.157       .  T
C178        N180   1.157       .  T
C181        C182   1.407   1_554  A
C181        C186   1.412       .  A
C182        C183   1.405       .  A
C182        H187   1.084       .  S
C183        C184   1.414       .  A
C183        C190   1.443       .  S
C184        C185   1.408   1_556  A
C185        C186   1.400       .  A
C185        H188   1.084       .  S
C186        C189   1.445       .  S
C189        N191   1.157       .  T
C190        N192   1.157       .  T
C193        C194   1.402       .  A
C193        C198   1.410       .  A
C194        C195   1.403       .  A
C194        H199   1.084       .  S
C195        C196   1.414       .  A
C195        C202   1.443       .  S
C196        C197   1.405       .  A
C197        C198   1.398       .  A
C197        H200   1.084       .  S
C198        C201   1.445       .  S
C201        N203   1.157       .  T
C202        N204   1.157       .  T
C205        C206   1.407       .  A
C205        C210   1.417       .  A
C206        C207   1.404       .  A
C206        H211   1.084       .  S
C207        C208   1.409       .  A
C207        C214   1.444       .  S
C208        C209   1.398       .  A
C209        C210   1.397       .  A
C209        H212   1.085       .  S
C210        C213   1.445   1_554  S
C213        N215   1.157       .  T
C214        N216   1.157       .  T
C217        C218   1.405       .  A
C217        C222   1.414       .  A
C218        C219   1.398       .  A
C218        H223   1.084       .  S
C219        C220   1.411       .  A
C219        C226   1.445       .  S
C220        C221   1.402       .  A
C221        C222   1.402       .  A
C221        H224   1.084       .  S
C222        C225   1.444       .  S
C225        N227   1.157       .  T
C226        N228   1.157       .  T
C229        C230   1.407       .  A
C229        C234   1.412       .  A
C230        C231   1.401       .  A
C230        H235   1.085       .  S
C231        C232   1.414       .  A
C231        C238   1.444       .  S
C232        C233   1.408       .  A
C233        C234   1.400       .  A
C233        H236   1.085       .  S
C234        C237   1.444       .  S
C237        N239   1.157   1_554  T
C238        N240   1.157       .  T
C241        C242   1.406       .  A
C241        C246   1.420       .  A
C242        C243   1.400       .  A
C242        H247   1.084       .  S
C243        C244   1.411       .  A
C243        C250   1.445       .  S
C244        C245   1.400       .  A
C245        C246   1.401       .  A
C245        H248   1.085       .  S
C246        C249   1.444       .  S
C249        N251   1.157       .  T
C250        N252   1.157       .  T
C253        C254   1.403       .  A
C253        C258   1.416       .  A
C254        C255   1.399       .  A
C254        H259   1.084       .  S
C255        C256   1.417       .  A
C255        C262   1.445       .  S
C256        C257   1.404       .  A
C257        C258   1.402       .  A
C257        H260   1.084       .  S
C258        C261   1.444       .  S
C261        N263   1.157   1_556  T
C262        N264   1.157       .  T
C265        C266   1.407   1_556  A
C265        C270   1.415       .  A
C266        C267   1.396       .  A
C266        H271   1.084       .  S
C267        C712   1.409       .  A
C267        C274   1.446       .  S
C268        C269   1.405       .  A
C268        C711   1.409   1_545  A
C269        C714   1.406   1_544  A
C269        H272   1.084   1_554  S
C270        C713   1.406   1_556  A
C270        C273   1.443       .  S
C273        N275   1.157       .  T
C274        N276   1.157   1_655  T
C277        C278   1.406       .  A
C277        C282   1.417       .  A
C278        C279   1.402       .  A
C278        H283   1.084       .  S
C279        C280   1.412       .  A
C279        C286   1.444       .  S
C280        C281   1.403       .  A
C281        C282   1.401       .  A
C281        H284   1.085       .  S
C282        C285   1.445       .  S
C285        N287   1.157       .  T
C286        N288   1.157       .  T
C289        C290   1.404       .  A
C289        C294   1.409       .  A
C290        C291   1.404       .  A
C290        H295   1.085       .  S
C291        C292   1.415       .  A
C291        C298   1.443       .  S
C292        C293   1.408       .  A
C293        C294   1.397       .  A
C293        H296   1.085       .  S
C294        C297   1.446       .  S
C297        N299   1.157       .  T
C298        N300   1.157       .  T
C301        C302   1.407       .  A
C301        C306   1.421       .  A
C302        C303   1.402       .  A
C302        H307   1.084       .  S
C303        C304   1.409       .  A
C303        C310   1.444       .  S
C304        C305   1.400       .  A
C305        C306   1.402       .  A
C305        H308   1.085       .  S
C306        C309   1.445       .  S
C309        N311   1.158       .  T
C310        N312   1.157       .  T
C313        C314   1.404       .  A
C313        C318   1.417       .  A
C314        C315   1.402       .  A
C314        H319   1.084       .  S
C315        C316   1.416       .  A
C315        C322   1.444       .  S
C316        C317   1.403       .  A
C317        C318   1.399       .  A
C317        H320   1.084       .  S
C318        C321   1.445       .  S
C321        N323   1.157       .  T
C322        N324   1.157       .  T
C325        C326   1.406       .  A
C325        C330   1.411       .  A
C326        C327   1.405       .  A
C326        H331   1.084       .  S
C327        C328   1.415       .  A
C327        C334   1.443       .  S
C328        C329   1.409       .  A
C329        C330   1.399       .  A
C329        H332   1.084       .  S
C330        C333   1.445       .  S
C333        N335   1.157       .  T
C334        N336   1.157       .  T
C337        C338   1.403       .  A
C337        C342   1.411       .  A
C338        C339   1.404       .  A
C338        H343   1.084       .  S
C339        C340   1.414       .  A
C339        C346   1.443       .  S
C340        C341   1.404       .  A
C341        C342   1.398       .  A
C341        H344   1.084       .  S
C342        C345   1.445       .  S
C345        N347   1.157       .  T
C346        N348   1.157       .  T
C349        C350   1.402       .  A
C349        C354   1.411       .  A
C350        C351   1.403       .  A
C350        H355   1.084       .  S
C351        C352   1.415       .  A
C351        C358   1.443       .  S
C352        C353   1.404       .  A
C353        C354   1.397       .  A
C353        H356   1.084       .  S
C354        C357   1.445       .  S
C357        N359   1.157       .  T
C358        N360   1.157       .  T
C361        C362   1.400       .  A
C361        C366   1.413   1_655  A
C362        C363   1.401       .  A
C362        H367   1.085       .  S
C363        C364   1.417       .  A
C363        C370   1.445       .  S
C364        C365   1.402   1_655  A
C365        C366   1.401       .  A
C365        H368   1.085       .  S
C366        C369   1.445       .  S
C369        N371   1.157       .  T
C370        N372   1.157       .  T
C373        C374   1.407       .  A
C373        C378   1.417       .  A
C374        C375   1.400       .  A
C374        H379   1.085       .  S
C375        C376   1.410       .  A
C375        C382   1.445       .  S
C376        C377   1.403       .  A
C377        C378   1.402       .  A
C377        H380   1.085       .  S
C378        C381   1.444       .  S
C381        N383   1.157       .  T
C382        N384   1.157       .  T
C385        C386   1.406       .  A
C385        C390   1.413       .  A
C386        C387   1.395       .  A
C386        H391   1.085       .  S
C387        C388   1.410       .  A
C387        C394   1.446       .  S
C388        C389   1.405       .  A
C389        C390   1.405       .  A
C389        H392   1.084       .  S
C390        C393   1.443       .  S
C393        N395   1.157       .  T
C394        N840   1.157       .  T
N396        C838   1.157       .  T
C397        C398   1.410       .  A
C397        C402   1.417   1_655  A
C398        C399   1.401       .  A
C398        H403   1.084       .  S
C399        C400   1.406       .  A
C399        C406   1.444       .  S
C400        C401   1.400   1_655  A
C401        C402   1.400       .  A
C401        H404   1.085       .  S
C402        C405   1.444       .  S
C405        N407   1.157       .  T
C406        N408   1.157       .  T
C409        C410   1.408       .  A
C409        C414   1.416       .  A
C410        C411   1.400       .  A
C410        H415   1.084       .  S
C411        C412   1.410       .  A
C411        C418   1.444       .  S
C412        C413   1.404       .  A
C413        C414   1.401       .  A
C413        H416   1.085       .  S
C414        C417   1.444       .  S
C417        N419   1.157   1_455  T
C418        N420   1.157       .  T
C421        C422   1.405       .  A
C421        C426   1.410       .  A
C422        C423   1.405       .  A
C422        H427   1.084       .  S
C423        C424   1.413       .  A
C423        C430   1.443       .  S
C424        C425   1.406       .  A
C425        C426   1.395       .  A
C425        H428   1.085       .  S
C426        C429   1.446   1_545  S
C429        N875   1.157       .  T
C430        N432   1.157       .  T
N431        C873   1.157       .  T
C433        C438   1.411       .  A
C433        C878   1.398   1_545  A
C434        C435   1.395   1_455  A
C434        C877   1.398       .  A
C434        H883   1.086   1_455  S
C435        C436   1.419   1_655  A
C435        C442   1.446       .  S
C436        C437   1.407       .  A
C437        C882   1.408       .  A
C437        H440   1.085       .  S
C438        C881   1.408   1_545  A
C438        C441   1.443       .  S
H439        C878   1.086   1_655  S
C441        N443   1.157       .  T
C442        N444   1.158       .  T
O445        C448   1.268       .  A
O445       Cd450   2.460   1_455  S
C446        O455   1.266       .  A
C446        O451   1.269   1_655  A
C446        C841   1.489       .  S
O447        C453   1.271       .  A
O447       Cd450   2.507       .  S
C448        O456   1.265       .  A
C448        C877   1.475       .  S
C449        O454   1.270       .  A
C449        O452   1.267       .  A
C449        C853   1.488       .  S
Cd450       O457   2.396       .  S
Cd450       O456   2.461   1_655  S
Cd450       O455   2.442       .  S
Cd450       O451   2.463   1_655  S
Cd450       O454   2.464   1_655  S
Cd450       O452   2.436   1_655  S
C453        O457   1.262       .  A
C453        C868   1.482       .  S
O458        C461   1.273       .  A
O458       Cd463   2.512   1_455  S
C459        O468   1.266       .  A
C459        O464   1.272   1_655  A
C459        C808   1.481       .  S
O460        C466   1.273       .  A
O460       Cd463   2.489       .  S
C461        O469   1.263       .  A
C461        C880   1.487       .  S
C462        O467   1.269       .  A
C462        O465   1.266       .  A
C462        C820   1.477       .  S
Cd463       O470   2.393       .  S
Cd463       O469   2.395   1_655  S
Cd463       O468   2.422       .  S
Cd463       O464   2.471   1_655  S
Cd463       O467   2.463   1_655  S
Cd463       O465   2.447   1_655  S
C466        O470   1.265       .  A
C466        C829   1.484       .  S
O471        C474   1.267       .  A
C472        O481   1.264       .  A
C472        O477   1.269       .  A
C472        C793   1.475       .  S
O473        C479   1.267       .  A
O473       Cd476   2.465       .  S
C474        O482   1.262       .  A
C474        C865   1.474       .  S
C475        O480   1.268       .  A
C475        O478   1.264       .  A
C475        C781   1.475       .  S
Cd476       O483   2.449       .  S
Cd476       O481   2.424       .  S
Cd476       O477   2.482       .  S
C479        O483   1.262       .  A
C479        C832   1.476       .  S
O484        C487   1.269       .  A
O484       Cd489   2.472       .  S
C485        O494   1.264       .  A
C485        O490   1.270       .  A
C485        C745   1.491       .  S
O486        C492   1.271       .  A
O486       Cd489   2.495       .  S
C487        O495   1.265       .  A
C487        C769   1.483       .  S
C488        O493   1.269       .  A
C488        O491   1.266       .  A
C488        C784   1.482       .  S
Cd489       O496   2.409       .  S
Cd489       O495   2.450       .  S
Cd489       O494   2.438       .  S
Cd489       O490   2.482       .  S
Cd489       O493   2.475       .  S
Cd489       O491   2.440       .  S
C492        O496   1.262       .  A
C492        C757   1.486       .  S
O497        C500   1.271       .  A
O497       Cd502   2.506       .  S
C498        O507   1.266       .  A
C498        O503   1.269       .  A
C498        C724   1.481       .  S
O499        C505   1.267       .  A
O499       Cd502   2.465       .  S
C500        O508   1.263       .  A
C500        C772   1.492       .  S
C501        O506   1.268       .  A
C501        O504   1.267       .  A
C501        C796   1.482       .  S
Cd502       O509   2.443       .  S
Cd502       O508   2.418       .  S
Cd502       O507   2.441       .  S
Cd502       O503   2.471       .  S
Cd502       O506   2.466       .  S
Cd502       O504   2.441       .  S
C505        O509   1.263       .  A
C505        C733   1.476       .  S
O510        C513   1.269       .  A
O510       Cd515   2.476       .  S
C511        O520   1.267       .  A
C511        O516   1.269       .  A
C511        C817   1.488       .  S
O512        C518   1.270       .  A
O512       Cd515   2.493       .  S
C513        O521   1.263       .  A
C513        C760   1.485       .  S
C514        O519   1.269       .  A
C514        O517   1.265       .  A
C514        C856   1.479       .  S
Cd515       O522   2.417       .  S
Cd515       O521   2.436       .  S
Cd515       O520   2.440       .  S
Cd515       O516   2.465       .  S
Cd515       O519   2.471       .  S
Cd515       O517   2.432       .  S
C518        O522   1.264       .  A
C518        C736   1.488       .  S
O523        C526   1.272       .  A
O523       Cd528   2.499       .  S
C524        O533   1.265       .  A
C524        O529   1.271       .  A
C524        C805   1.475       .  S
O525        C531   1.273       .  A
O525       Cd528   2.480   1_455  S
C526        O534   1.265       .  A
C526        C709   1.488       .  S
C527        O532   1.270       .  A
C527        O530   1.265       .  A
C527        C685   1.490       .  S
Cd528       O535   2.407   1_655  S
Cd528       O534   2.411       .  S
Cd528       O533   2.424       .  S
Cd528       O529   2.478       .  S
Cd528       O532   2.472       .  S
Cd528       O530   2.434       .  S
C531        O535   1.265       .  A
C531        C700   1.485       .  S
O536        C539   1.267       .  A
O536       Cd541   2.460       .  S
C537        O546   1.264       .  A
C537        O542   1.268       .  A
C537        C712   1.476       .  S
O538        C544   1.269       .  A
O538       Cd541   2.457       .  S
C539        O547   1.265       .  A
C539        C844   1.471       .  S
C540        O545   1.268       .  A
C540        O543   1.261       .  A
C540        C673   1.485       .  S
Cd541       O548   2.441       .  S
Cd541       O547   2.452       .  S
Cd541       O546   2.454       .  S
Cd541       O542   2.464       .  S
Cd541       O545   2.488   1_655  S
Cd541       O543   2.428   1_655  S
C544        O548   1.268       .  A
C544        C661   1.481       .  S
O549        C552   1.270       .  A
O549       Cd554   2.494       .  S
C550        O559   1.265       .  A
C550        O555   1.271       .  A
C550        C676   1.489       .  S
O551        C557   1.267       .  A
C552        O560   1.263   1_554  A
C552        C649   1.484       .  S
C553        O558   1.269       .  A
C553        O556   1.264       .  A
C553        C697   1.484       .  S
Cd554       O560   2.416   1_554  S
Cd554       O558   2.473   1_554  S
Cd554       O556   2.435   1_554  S
C557        O561   1.265   1_556  A
C557        C637   1.474       .  S
O562        C565   1.270       .  A
O562       Cd567   2.508       .  S
C563        O572   1.265       .  A
C563        O568   1.268       .  A
C563        C748   1.476       .  S
O564        C570   1.267       .  A
O564       Cd567   2.475       .  S
C565        O573   1.263       .  A
C565        C628   1.492       .  S
C566        O571   1.269       .  A
C566        O569   1.267       .  A
C566        C640   1.482       .  S
Cd567       O574   2.448       .  S
Cd567       O573   2.425       .  S
Cd567       O572   2.454       .  S
Cd567       O568   2.468       .  S
Cd567       O571   2.468       .  S
Cd567       O569   2.440       .  S
C570        O574   1.262       .  A
C570        C613   1.477       .  S
O575        C578   1.270       .  A
O575       Cd580   2.475       .  S
C576        O585   1.265       .  A
C576        O581   1.270       .  A
C576        C721   1.487       .  S
O577        C583   1.271       .  A
O577       Cd580   2.509       .  S
C578        O586   1.266       .  A
C578        C625   1.486       .  S
C579        O584   1.269       .  A
C579        O582   1.265       .  A
C579        C652   1.471       .  S
Cd580       O587   2.389       .  S
Cd580       O586   2.446       .  S
Cd580       O585   2.437       .  S
Cd580       O581   2.475       .  S
Cd580       O584   2.476       .  S
Cd580       O582   2.433       .  S
C583        O587   1.262       .  A
C583        C604   1.483       .  S
O588        C591   1.267       .  A
O588       Cd593   2.450       .  S
C589        O598   1.266       .  A
C589        O594   1.269       .  A
C589        C664   1.474       .  S
O590        C596   1.272       .  A
O590       Cd593   2.506   1_556  S
C591        O599   1.264       .  A
C591        C601   1.472       .  S
C592        O597   1.270       .  A
C592        O595   1.265   1_556  A
C592        C688   1.478       .  S
Cd593       O600   2.406       .  S
Cd593       O599   2.458       .  S
Cd593       O598   2.428       .  S
Cd593       O594   2.465       .  S
Cd593       O597   2.476   1_554  S
Cd593       O595   2.428       .  S
C596        O600   1.261   1_556  A
C596        C616   1.490       .  S
C601        C602   1.398       .  A
C601        C606   1.410       .  A
C602        C603   1.393       .  A
C602        H607   1.084       .  S
C603        C604   1.417       .  A
C603        C610   1.446       .  S
C604        C605   1.407       .  A
C605        C606   1.406       .  A
C605        H608   1.084       .  S
C606        C609   1.443       .  S
C609        N611   1.157       .  T
C610        N612   1.157       .  T
C613        C614   1.399       .  A
C613        C618   1.411       .  A
C614        C615   1.397       .  A
C614        H619   1.086       .  S
C615        C616   1.421       .  A
C615        C622   1.445   1_556  S
C616        C617   1.407       .  A
C617        C618   1.404       .  A
C617        H620   1.084       .  S
C618        C621   1.443       .  S
C621        N623   1.157       .  T
C622        N624   1.157       .  T
C625        C626   1.407   1_554  A
C625        C630   1.412       .  A
C626        C627   1.405       .  A
C626        H631   1.084       .  S
C627        C628   1.414       .  A
C627        C634   1.443       .  S
C628        C629   1.408   1_556  A
C629        C630   1.400       .  A
C629        H632   1.084       .  S
C630        C633   1.445       .  S
C633        N635   1.157       .  T
C634        N636   1.157       .  T
C637        C638   1.402       .  A
C637        C642   1.410       .  A
C638        C639   1.403       .  A
C638        H643   1.084       .  S
C639        C640   1.414       .  A
C639        C646   1.443       .  S
C640        C641   1.405       .  A
C641        C642   1.398       .  A
C641        H644   1.084       .  S
C642        C645   1.445       .  S
C645        N647   1.157       .  T
C646        N648   1.157       .  T
C649        C650   1.407       .  A
C649        C654   1.417       .  A
C650        C651   1.404       .  A
C650        H655   1.084       .  S
C651        C652   1.409       .  A
C651        C658   1.444       .  S
C652        C653   1.398       .  A
C653        C654   1.397       .  A
C653        H656   1.085       .  S
C654        C657   1.445   1_554  S
C657        N659   1.157       .  T
C658        N660   1.157       .  T
C661        C662   1.405       .  A
C661        C666   1.414       .  A
C662        C663   1.398       .  A
C662        H667   1.084       .  S
C663        C664   1.411       .  A
C663        C670   1.445       .  S
C664        C665   1.402       .  A
C665        C666   1.402       .  A
C665        H668   1.084       .  S
C666        C669   1.444       .  S
C669        N671   1.157       .  T
C670        N672   1.157       .  T
C673        C674   1.407       .  A
C673        C678   1.412       .  A
C674        C675   1.401       .  A
C674        H679   1.085       .  S
C675        C676   1.414       .  A
C675        C682   1.444       .  S
C676        C677   1.408       .  A
C677        C678   1.400       .  A
C677        H680   1.085       .  S
C678        C681   1.444       .  S
C681        N683   1.157   1_554  T
C682        N684   1.157       .  T
C685        C686   1.406       .  A
C685        C690   1.420       .  A
C686        C687   1.400       .  A
C686        H691   1.084       .  S
C687        C688   1.411       .  A
C687        C694   1.445       .  S
C688        C689   1.400       .  A
C689        C690   1.401       .  A
C689        H692   1.085       .  S
C690        C693   1.444       .  S
C693        N695   1.157       .  T
C694        N696   1.157       .  T
C697        C698   1.403       .  A
C697        C702   1.416       .  A
C698        C699   1.399       .  A
C698        H703   1.084       .  S
C699        C700   1.417       .  A
C699        C706   1.445       .  S
C700        C701   1.404       .  A
C701        C702   1.402       .  A
C701        H704   1.084       .  S
C702        C705   1.444       .  S
C705        N707   1.157   1_556  T
C706        N708   1.157       .  T
C709        C710   1.407   1_556  A
C709        C714   1.415       .  A
C710        C711   1.396       .  A
C710        H715   1.084       .  S
C711        C718   1.446       .  S
C712        C713   1.405       .  A
C713        H716   1.084   1_554  S
C714        C717   1.443       .  S
C717        N719   1.157       .  T
C718        N720   1.157   1_655  T
C721        C722   1.406       .  A
C721        C726   1.417       .  A
C722        C723   1.402       .  A
C722        H727   1.084       .  S
C723        C724   1.412       .  A
C723        C730   1.444       .  S
C724        C725   1.403       .  A
C725        C726   1.401       .  A
C725        H728   1.085       .  S
C726        C729   1.445       .  S
C729        N731   1.157       .  T
C730        N732   1.157       .  T
C733        C734   1.404       .  A
C733        C738   1.409       .  A
C734        C735   1.404       .  A
C734        H739   1.085       .  S
C735        C736   1.415       .  A
C735        C742   1.443       .  S
C736        C737   1.408       .  A
C737        C738   1.397       .  A
C737        H740   1.085       .  S
C738        C741   1.446       .  S
C741        N743   1.157       .  T
C742        N744   1.157       .  T
C745        C746   1.407       .  A
C745        C750   1.421       .  A
C746        C747   1.402       .  A
C746        H751   1.084       .  S
C747        C748   1.409       .  A
C747        C754   1.444       .  S
C748        C749   1.400       .  A
C749        C750   1.402       .  A
C749        H752   1.085       .  S
C750        C753   1.445       .  S
C753        N755   1.158       .  T
C754        N756   1.157       .  T
C757        C758   1.404       .  A
C757        C762   1.417       .  A
C758        C759   1.402       .  A
C758        H763   1.084       .  S
C759        C760   1.416       .  A
C759        C766   1.444       .  S
C760        C761   1.403       .  A
C761        C762   1.399       .  A
C761        H764   1.084       .  S
C762        C765   1.445       .  S
C765        N767   1.157       .  T
C766        N768   1.157       .  T
C769        C770   1.406       .  A
C769        C774   1.411       .  A
C770        C771   1.405       .  A
C770        H775   1.084       .  S
C771        C772   1.415       .  A
C771        C778   1.443       .  S
C772        C773   1.409       .  A
C773        C774   1.399       .  A
C773        H776   1.084       .  S
C774        C777   1.445       .  S
C777        N779   1.157       .  T
C778        N780   1.157       .  T
C781        C782   1.403       .  A
C781        C786   1.411       .  A
C782        C783   1.404       .  A
C782        H787   1.084       .  S
C783        C784   1.414       .  A
C783        C790   1.443       .  S
C784        C785   1.404       .  A
C785        C786   1.398       .  A
C785        H788   1.084       .  S
C786        C789   1.445       .  S
C789        N791   1.157       .  T
C790        N792   1.157       .  T
C793        C794   1.402       .  A
C793        C798   1.411       .  A
C794        C795   1.403       .  A
C794        H799   1.084       .  S
C795        C796   1.415       .  A
C795        C802   1.443       .  S
C796        C797   1.404       .  A
C797        C798   1.397       .  A
C797        H800   1.084       .  S
C798        C801   1.445       .  S
C801        N803   1.157       .  T
C802        N804   1.157       .  T
C805        C806   1.400       .  A
C805        C810   1.413   1_655  A
C806        C807   1.401       .  A
C806        H811   1.085       .  S
C807        C808   1.417       .  A
C807        C814   1.445       .  S
C808        C809   1.402   1_655  A
C809        C810   1.401       .  A
C809        H812   1.085       .  S
C810        C813   1.445       .  S
C813        N815   1.157       .  T
C814        N816   1.157       .  T
C817        C818   1.407       .  A
C817        C822   1.417       .  A
C818        C819   1.400       .  A
C818        H823   1.085       .  S
C819        C820   1.410       .  A
C819        C826   1.445       .  S
C820        C821   1.403       .  A
C821        C822   1.402       .  A
C821        H824   1.085       .  S
C822        C825   1.444       .  S
C825        N827   1.157       .  T
C826        N828   1.157       .  T
C829        C830   1.406       .  A
C829        C834   1.413       .  A
C830        C831   1.395       .  A
C830        H835   1.085       .  S
C831        C832   1.410       .  A
C831        C838   1.446   1_565  S
C832        C833   1.405       .  A
C833        C834   1.405       .  A
C833        H836   1.084       .  S
C834        C837   1.443       .  S
C837        N839   1.157       .  T
C841        C842   1.410       .  A
C841        C846   1.417   1_655  A
C842        C843   1.401       .  A
C842        H847   1.084       .  S
C843        C844   1.406       .  A
C843        C850   1.444       .  S
C844        C845   1.400   1_655  A
C845        C846   1.400       .  A
C845        H848   1.085       .  S
C846        C849   1.444       .  S
C849        N851   1.157       .  T
C850        N852   1.157       .  T
C853        C854   1.408       .  A
C853        C858   1.416       .  A
C854        C855   1.400       .  A
C854        H859   1.084       .  S
C855        C856   1.410       .  A
C855        C862   1.444       .  S
C856        C857   1.404       .  A
C857        C858   1.401       .  A
C857        H860   1.085       .  S
C858        C861   1.444       .  S
C861        N863   1.157   1_455  T
C862        N864   1.157       .  T
C865        C866   1.405       .  A
C865        C870   1.410       .  A
C866        C867   1.405       .  A
C866        H871   1.084       .  S
C867        C868   1.413       .  A
C867        C874   1.443       .  S
C868        C869   1.406       .  A
C869        C870   1.395       .  A
C869        H872   1.085       .  S
C870        C873   1.446       .  S
C874        N876   1.157       .  T
C877        C882   1.411       .  A
C878        C879   1.395   1_455  A
C879        C880   1.419   1_655  A
C879        C886   1.446       .  S
C880        C881   1.407       .  A
C881        H884   1.085       .  S
C882        C885   1.443       .  S
C885        N887   1.157       .  T
C886        N888   1.158       .  T
