geometry optimzed in LAMMPS
_audit_creation_date              2020-11-30 
_audit_creation_method            'lammps2cif' 
_symmetry_space_group_name_H-M    'P1' 
_symmetry_Int_Tables_number       1 
_symmetry_cell_setting            triclinic 
loop_ 
_symmetry_equiv_pos_as_xyz 
  x,y,z 
_cell_length_a                    39.70750288 
_cell_length_b                    27.861390221501882 
_cell_length_c                    37.56957428000001 
_cell_angle_alpha                 90.00000131136623 
_cell_angle_beta                  90.00000086928306 
_cell_angle_gamma                 90.01210200879308 
loop_ 
_atom_site_label 
_atom_site_type_symbol 
_atom_site_fract_x 
_atom_site_fract_y 
_atom_site_fract_z 
_atom_site_charge 
O1          O  0.44579798  0.40503135  0.26462393    -0.73600
O2          O  0.40669635  0.44897548  0.29513426    -0.52500
C3          C  0.41534573  0.41609348  0.27299810     0.80100
O4          O  0.05944532  0.40521461  0.06871634    -0.58200
O5          O  0.09852802  0.44875207  0.03785070    -0.51300
C6          C  0.08988711  0.41611732  0.06018522     0.72100
O7          O  0.44564794  0.40429582  0.06798739    -0.72800
O8          O  0.40660164  0.44848492  0.03760003    -0.53300
C9          C  0.41520975  0.41547014  0.05964330     0.78100
O10         O  0.05940800  0.40582863  0.26389554    -0.57900
O11         O  0.09846197  0.44924119  0.29491206    -0.51000
C12         C  0.08984263  0.41668288  0.27249550     0.74700
Zr13       Zr  0.50260528  0.43216375  0.27961568     2.54700
O14         O  0.50287799  0.34491777  0.27645382    -0.78500
O15         O  0.00311633  0.43999240  0.21502750    -0.91900
Zr16       Zr  0.50251549  0.43085533  0.05272228     2.64700
O17         O  0.50163689  0.34346100  0.05317042    -0.96900
O18         O  0.00306156  0.43464848  0.11750560    -0.78900
O19         O  0.47035833  0.43055415  0.33280531    -0.82300
O20         O  0.03464935  0.43034759  0.33286392    -2.17000
O21         O  0.05954352  0.09992519  0.26464739    -0.65700
O22         O  0.09859043  0.05620765  0.29541615    -0.50200
C23         C  0.08997312  0.08895198  0.27316022     0.73100
O24         O  0.44579907  0.10048619  0.06834734    -0.58600
O25         O  0.40671211  0.05610874  0.03813683    -0.50600
C26         C  0.41534639  0.08918829  0.06011623     0.74900
O27         O  0.05937480  0.09921398  0.06941307    -0.70000
O28         O  0.09842309  0.05570293  0.03847133    -0.48700
C29         C  0.08980306  0.08828293  0.06087072     0.76300
O30         O  0.44578562  0.10125703  0.26540950    -0.65300
O31         O  0.40672239  0.05677582  0.29556298    -0.52500
C32         C  0.41534146  0.08991999  0.27362875     0.74700
Zr33       Zr  0.00257777  0.07435919  0.28058690     2.77500
O34         O  0.00239759  0.16178694  0.27999676    -0.96100
O35         O  0.00195655  0.06965937  0.21586844    -0.76900
Zr36       Zr  0.00257061  0.07299856  0.05361738     2.70100
O37         O  0.00338672  0.16019914  0.05736906    -0.78100
O38         O  0.00199584  0.06399487  0.11809435    -0.97200
Zr39       Zr  0.43827532  0.00260051  0.99993852     2.21500
Zr40       Zr  0.06684755  0.50250679  0.33330341     2.11100
O41         O  0.03468212  0.07466631  0.00043083    -2.45900
O42         O  0.47032613  0.07470189  0.00043506    -0.77900
O43         O  0.03557163  0.50326371  0.27918881    -0.70100
O44         O  0.46965373  0.00197807  0.05404906    -2.31100
O45         O  0.46971859  0.00325131  0.27920668    -2.27300
O46         O  0.03553618  0.50192042  0.05406091    -0.71900
H47         H  0.04901586  0.40239131  0.99938825     0.80100
H48         H  0.45488968  0.00187426  0.07448209     0.82000
H49         H  0.04908667  0.10258939  0.33392808     0.83400
H50         H  0.45497662  0.00352347  0.25875876     0.81000
H51         H  0.48304043  0.45397809  0.12390274     0.44100
H52         H  0.02184328  0.04373411  0.12346297     0.43100
H53         H  0.50148109  0.17105939  0.03235676     0.42700
H54         H  0.02077088  0.17124457  0.29637563     0.40700
H55         H  0.01816265  0.04382786  0.21003671     0.43800
H56         H  0.48080716  0.45350219  0.20886478     0.38600
H57         H  0.49594875  0.33441826  0.30054411     0.44700
H58         H  0.01976343  0.33380101  0.03655661     0.41100
H59         H  0.01073157  0.17060352  0.25602948     0.46000
H60         H  0.50232481  0.40655244  0.20614852     0.44800
H61         H  0.51016138  0.33445918  0.07702354     0.44900
H62         H  0.00807923  0.09615232  0.12729180     0.45200
O63         O  0.30926396  0.35004196  0.09795716    -0.73600
O64         O  0.34836555  0.30609780  0.12846752    -0.52500
C65         C  0.33971619  0.33897983  0.10633138     0.80100
O66         O  0.19561657  0.34985899  0.23538291    -0.58200
O67         O  0.15653385  0.30632125  0.20451753    -0.51300
C68         C  0.16517476  0.33895612  0.22685195     0.72100
O69         O  0.30941389  0.35077789  0.23465394    -0.72800
O70         O  0.34846016  0.30658861  0.20426670    -0.53300
C71         C  0.33985207  0.33960350  0.22630989     0.78100
O72         O  0.19565383  0.34924474  0.09722876    -0.57900
O73         O  0.15659983  0.30583235  0.12824537    -0.51000
C74         C  0.16521920  0.33839062  0.10582879     0.74700
Zr75       Zr  0.25245661  0.32290983  0.11294891     2.54700
O76         O  0.25218395  0.41015581  0.10978679    -0.78500
O77         O  0.25194564  0.31508122  0.04836072    -0.91900
Zr78       Zr  0.25254635  0.32421839  0.21938879     2.64700
O79         O  0.25342482  0.41161268  0.21983667    -0.96900
O80         O  0.25200016  0.32042585  0.28417212    -0.78900
O81         O  0.28470357  0.32451952  0.16613855    -0.82300
O82         O  0.22041249  0.32472609  0.16619714    -2.17000
O83         O  0.19551838  0.15514845  0.09798075    -0.65700
O84         O  0.15647140  0.19886577  0.12874958    -0.50200
C85         C  0.16508876  0.16612153  0.10649363     0.73100
O86         O  0.30926280  0.15458742  0.23501399    -0.58600
O87         O  0.34834979  0.19896484  0.20480351    -0.50600
C88         C  0.33971548  0.16588533  0.22678293     0.74900
O89         O  0.19568713  0.15585953  0.23607978    -0.70000
O90         O  0.15663884  0.19937070  0.20513816    -0.48700
C91         C  0.16525887  0.16679063  0.22753748     0.76300
O92         O  0.30927626  0.15381650  0.09874291    -0.65300
O93         O  0.34833948  0.19829771  0.12889641    -0.52500
C94         C  0.33972042  0.16515359  0.10696214     0.74700
Zr95       Zr  0.25248412  0.18071437  0.11392026     2.77500
O96         O  0.25266430  0.09328662  0.11332996    -0.96100
O97         O  0.25310512  0.18541440  0.04920181    -0.76900
Zr98       Zr  0.25249127  0.18207514  0.22028403     2.70100
O99         O  0.25167519  0.09487463  0.22403585    -0.78100
O100        O  0.25306606  0.19107891  0.28476102    -0.97200
Zr101      Zr  0.31678656  0.25247297  0.16660520     2.21500
Zr102      Zr  0.18821437  0.25256685  0.16663669     2.11100
O103        O  0.22037973  0.18040714  0.16709749    -2.45900
O104        O  0.28473577  0.18037161  0.16710171    -0.77900
O105        O  0.21949023  0.25180987  0.11252201    -0.70100
O106        O  0.28540824  0.25309562  0.22071582    -2.31100
O107        O  0.28534336  0.25182218  0.11253998    -2.27300
O108        O  0.21952579  0.25315329  0.22072745    -0.71900
H109        H  0.20604591  0.35268233  0.16605468     0.80100
H110        H  0.30017234  0.25319953  0.24114902     0.81200
H111        H  0.20597515  0.15248381  0.16726149     0.83400
H112        H  0.30008531  0.25154997  0.09209205     0.81000
H113        H  0.27202111  0.30109601  0.29056939     0.44100
H114        H  0.23321896  0.21134031  0.29012962     0.43100
H115        H  0.25357978  0.08401430  0.19902347     0.42700
H116        H  0.23429117  0.08382893  0.12970901     0.40700
H117        H  0.23689848  0.21124524  0.04337016     0.43800
H118        H  0.27425463  0.30157095  0.04219805     0.38600
H119        H  0.25911310  0.42065545  0.13387707     0.44700
H120        H  0.23529811  0.42127248  0.20322313     0.41100
H121        H  0.24433012  0.08447000  0.08936274     0.46000
H122        H  0.25273749  0.34852120  0.03948175     0.44800
H123        H  0.24490058  0.42061462  0.24368994     0.44900
H124        H  0.24698214  0.15892166  0.29395853     0.45200
C125        C  0.11630979  0.11543699  0.07715837    -0.11600
C126        C  0.13858088  0.13886425  0.09030327    -0.13200
C127        C  0.13875214  0.13963649  0.24382506    -0.11600
C128        C  0.11648103  0.11620918  0.25696989    -0.13200
C129        C  0.13870042  0.36556955  0.08958116    -0.11600
C130        C  0.11639104  0.38892455  0.07644157    -0.13200
C131        C  0.38876533  0.11590251  0.07671408    -0.11600
C132        C  0.36630740  0.13842546  0.09038640    -0.13200
C133        C  0.38880300  0.38923428  0.25643296    -0.11600
C134        C  0.36642251  0.36646538  0.24282256    -0.13200
C135        C  0.38875450  0.11664823  0.25705308    -0.11600
C136        C  0.36629652  0.13917117  0.24338083    -0.13200
C137        C  0.13867083  0.36614897  0.24310827    -0.11600
C138        C  0.11636144  0.38950406  0.25624780    -0.13200
C139        C  0.36625890  0.36583923  0.08976640    -0.11600
C140        C  0.38863934  0.38860829  0.07615603    -0.13200
O141        O  0.44579797  0.40503136  0.59795724    -0.73600
O142        O  0.40669637  0.44897551  0.62846758    -0.52500
C143        C  0.41534574  0.41609349  0.60633145     0.80100
O144        O  0.05944533  0.40521461  0.40204964    -0.58200
O145        O  0.09852804  0.44875206  0.37118402    -0.51300
C146        C  0.08988713  0.41611731  0.39351853     0.72100
O147        O  0.44564794  0.40429583  0.40132069    -0.72800
O148        O  0.40660164  0.44848493  0.37093332    -0.53300
C149        C  0.41520975  0.41547015  0.39297660     0.78100
O150        O  0.05940801  0.40582864  0.59722885    -0.57900
O151        O  0.09846197  0.44924123  0.62824537    -0.51000
C152        C  0.08984264  0.41668289  0.60582884     0.74700
Zr153      Zr  0.50260528  0.43216378  0.61294897     2.54700
O154        O  0.50287799  0.34491781  0.60978686    -0.78500
O155        O  0.00311633  0.43999242  0.54836080    -0.91900
Zr156      Zr  0.50251549  0.43085534  0.38605560     2.64700
O157        O  0.50163690  0.34346100  0.38650372    -0.96900
O158        O  0.00306157  0.43464848  0.45083890    -0.78900
O159        O  0.47035832  0.43055417  0.66613861    -0.82300
O160        O  0.03464935  0.43034759  0.66619722    -2.17000
O161        O  0.05954347  0.09992523  0.59798065    -0.65700
O162        O  0.09859040  0.05620785  0.62874951    -0.50200
C163        C  0.08997306  0.08895210  0.60649351     0.73100
O164        O  0.44579907  0.10048621  0.40168064    -0.58600
O165        O  0.40671212  0.05610875  0.37147012    -0.50600
C166        C  0.41534639  0.08918831  0.39344952     0.74900
O167        O  0.05937479  0.09921419  0.40274632    -0.70000
O168        O  0.09842306  0.05570298  0.37180470    -0.48700
C169        C  0.08980305  0.08828302  0.39420407     0.76300
O170        O  0.44578563  0.10125711  0.59874296    -0.65300
O171        O  0.40672236  0.05677577  0.62889628    -0.52500
C172        C  0.41534146  0.08992000  0.60696212     0.74700
Zr173      Zr  0.00257776  0.07435920  0.61392025     2.77500
O174        O  0.00239759  0.16178696  0.61333004    -0.96100
O175        O  0.00195655  0.06965938  0.54920176    -0.76900
Zr176      Zr  0.00257061  0.07299858  0.38695069     2.70100
O177        O  0.00338672  0.16019916  0.39070236    -0.78100
O178        O  0.00199585  0.06399488  0.45142765    -0.97200
Zr179      Zr  0.43827534  0.00260052  0.33327185     2.21500
Zr180      Zr  0.06684753  0.50250679  0.66663672     2.11100
O181        O  0.03468213  0.07466630  0.33376415    -2.45900
O182        O  0.47032613  0.07470189  0.33376839    -0.77900
O183        O  0.03557163  0.50326372  0.61252210    -0.70100
O184        O  0.46965366  0.00197807  0.38738250    -2.31100
O185        O  0.46971859  0.00325133  0.61253998    -2.27300
O186        O  0.03553617  0.50192043  0.38739423    -0.71900
H187        H  0.04901586  0.40239128  0.33272146     0.80100
H188        H  0.45488955  0.00187426  0.40781570     0.82000
H189        H  0.04908667  0.10258942  0.66726153     0.83400
H190        H  0.45497663  0.00352348  0.59209206     0.81000
H191        H  0.48304032  0.45397785  0.45723605     0.44100
H192        H  0.02184330  0.04373412  0.45679627     0.43100
H193        H  0.50148107  0.17105942  0.36569005     0.42700
H194        H  0.02077081  0.17124459  0.62970897     0.40700
H195        H  0.01816278  0.04382806  0.54337001     0.43800
H196        H  0.48080716  0.45350220  0.54219807     0.38600
H197        H  0.49594883  0.33441818  0.63387714     0.44700
H198        H  0.01976357  0.33380097  0.36989002     0.41100
H199        H  0.01073168  0.17060356  0.58936277     0.46000
H200        H  0.50232482  0.40655246  0.53948182     0.44800
H201        H  0.51016119  0.33445917  0.41035696     0.44900
H202        H  0.00807924  0.09615233  0.46062510     0.45200
O203        O  0.30926397  0.35004198  0.43129051    -0.73600
O204        O  0.34836556  0.30609781  0.46180087    -0.52500
C205        C  0.33971620  0.33897987  0.43966473     0.80100
O206        O  0.19561656  0.34985895  0.56871639    -0.58200
O207        O  0.15653388  0.30632132  0.53785084    -0.51300
C208        C  0.16517477  0.33895614  0.56018532     0.72100
O209        O  0.30941390  0.35077790  0.56798728    -0.72800
O210        O  0.34846018  0.30658864  0.53760002    -0.53300
C211        C  0.33985208  0.33960351  0.55964324     0.78100
O212        O  0.19565387  0.34924478  0.43056221    -0.57900
O213        O  0.15659984  0.30583244  0.46157880    -0.51000
C214        C  0.16521921  0.33839065  0.43916221     0.74700
Zr215      Zr  0.25245663  0.32290986  0.44628230     2.54700
O216        O  0.25218395  0.41015584  0.44312033    -0.78500
O217        O  0.25194564  0.31508124  0.38169405    -0.91900
Zr218      Zr  0.25254635  0.32421839  0.55272222     2.64700
O219        O  0.25342481  0.41161269  0.55316996    -0.96900
O220        O  0.25200017  0.32042585  0.61750553    -0.78900
O221        O  0.28470355  0.32451951  0.49947199    -0.82300
O222        O  0.22041253  0.32472608  0.49953058    -2.17000
O223        O  0.19551835  0.15514844  0.43131403    -0.65700
O224        O  0.15647141  0.19886580  0.46208288    -0.50200
C225        C  0.16508875  0.16612155  0.43982693     0.73100
O226        O  0.30926278  0.15458752  0.56834745    -0.58600
O227        O  0.34834975  0.19896479  0.53813682    -0.50600
C228        C  0.33971546  0.16588534  0.56011629     0.74900
O229        O  0.19568707  0.15585952  0.56941311    -0.70000
O230        O  0.15663885  0.19937075  0.53847145    -0.48700
C231        C  0.16525883  0.16679069  0.56087079     0.76300
O232        O  0.30927623  0.15381654  0.43207628    -0.65300
O233        O  0.34833948  0.19829771  0.46222976    -0.52500
C234        C  0.33972040  0.16515358  0.44029550     0.74700
Zr235      Zr  0.25248406  0.18071439  0.44725358     2.77500
O236        O  0.25266430  0.09328663  0.44666325    -0.96100
O237        O  0.25310512  0.18541441  0.38253511    -0.76900
Zr238      Zr  0.25249121  0.18207515  0.55361742     2.70100
O239        O  0.25167518  0.09487463  0.55736915    -0.78100
O240        O  0.25306605  0.19107892  0.61809441    -0.97200
Zr241      Zr  0.31678654  0.25247297  0.49993853     2.21500
Zr242      Zr  0.18821438  0.25256688  0.49997002     2.11100
O243        O  0.22037969  0.18040714  0.50043085    -2.45900
O244        O  0.28473567  0.18037163  0.50043507    -0.77900
O245        O  0.21949020  0.25180993  0.44585531    -0.70100
O246        O  0.28540822  0.25309560  0.55404915    -2.31100
O247        O  0.28534334  0.25182216  0.44587329    -2.27300
O248        O  0.21952575  0.25315332  0.55406080    -0.71900
H249        H  0.20604594  0.35268232  0.49938819     0.80100
H250        H  0.30017235  0.25319948  0.57448232     0.81200
H251        H  0.20597510  0.15248384  0.50059481     0.83400
H252        H  0.30008528  0.25154995  0.42542536     0.81000
H253        H  0.27202114  0.30109600  0.62390273     0.44100
H254        H  0.23321902  0.21134047  0.62346301     0.43100
H255        H  0.25358004  0.08401440  0.53235677     0.42700
H256        H  0.23429118  0.08382888  0.46304230     0.40700
H257        H  0.23689849  0.21124525  0.37670341     0.43800
H258        H  0.27425463  0.30157097  0.37553135     0.38600
H259        H  0.25911318  0.42065539  0.46721062     0.44700
H260        H  0.23529796  0.42127246  0.53655647     0.41100
H261        H  0.24433013  0.08446999  0.42269603     0.46000
H262        H  0.25273749  0.34852122  0.37281506     0.44800
H263        H  0.24490075  0.42061468  0.57702321     0.44900
H264        H  0.24698203  0.15892168  0.62729188     0.45200
C265        C  0.11630978  0.11543696  0.41049178    -0.11600
C266        C  0.13858088  0.13886425  0.42363663    -0.13200
C267        C  0.13875208  0.13963665  0.57715839    -0.11600
C268        C  0.11648097  0.11620932  0.59030316    -0.13200
C269        C  0.13870046  0.36556954  0.42291448    -0.11600
C270        C  0.11639107  0.38892452  0.40977488    -0.13200
C271        C  0.38876533  0.11590253  0.41004738    -0.11600
C272        C  0.36630739  0.13842546  0.42371974    -0.13200
C273        C  0.38880298  0.38923422  0.58976643    -0.11600
C274        C  0.36642249  0.36646532  0.57615602    -0.13200
C275        C  0.38875452  0.11664824  0.59038638    -0.11600
C276        C  0.36629654  0.13917117  0.57671414    -0.13200
C277        C  0.13867082  0.36614897  0.57644163    -0.11600
C278        C  0.11636146  0.38950402  0.58958121    -0.13200
C279        C  0.36625891  0.36583925  0.42309974    -0.11600
C280        C  0.38863934  0.38860829  0.40948933    -0.13200
O281        O  0.44579798  0.40503137  0.93129054    -0.73600
O282        O  0.40669639  0.44897553  0.96180090    -0.52500
C283        C  0.41534575  0.41609352  0.93966475     0.80100
O284        O  0.05944533  0.40521463  0.73538293    -0.58200
O285        O  0.09852804  0.44875208  0.70451731    -0.51300
C286        C  0.08988713  0.41611732  0.72685182     0.72100
O287        O  0.44564796  0.40429578  0.73465399    -0.72800
O288        O  0.40660165  0.44848504  0.70426676    -0.53300
C289        C  0.41520976  0.41547016  0.72630996     0.78100
O290        O  0.05940803  0.40582863  0.93056232    -0.57900
O291        O  0.09846201  0.44924118  0.96157881    -0.51000
C292        C  0.08984266  0.41668288  0.93916227     0.74700
Zr293      Zr  0.50260529  0.43216377  0.94628232     2.54700
O294        O  0.50287799  0.34491780  0.94312041    -0.78500
O295        O  0.00311634  0.43999242  0.88169411    -0.91900
Zr296      Zr  0.50251549  0.43085535  0.71938889     2.64700
O297        O  0.50163691  0.34346102  0.71983700    -0.96900
O298        O  0.00306158  0.43464849  0.78417220    -0.78900
O299        O  0.47035834  0.43055418  0.99947197    -0.82300
O300        O  0.03464934  0.43034761  0.99953062    -2.17000
O301        O  0.05954348  0.09992522  0.93131399    -0.65700
O302        O  0.09859040  0.05620768  0.96208274    -0.50200
C303        C  0.08997307  0.08895201  0.93982681     0.73100
O304        O  0.44579904  0.10048624  0.73501400    -0.58600
O305        O  0.40671213  0.05610875  0.70480345    -0.50600
C306        C  0.41534639  0.08918828  0.72678287     0.74900
O307        O  0.05937479  0.09921420  0.73607961    -0.70000
O308        O  0.09842307  0.05570299  0.70513800    -0.48700
C309        C  0.08980305  0.08828303  0.72753737     0.76300
O310        O  0.44578563  0.10125712  0.93207627    -0.65300
O311        O  0.40672239  0.05677575  0.96222962    -0.52500
C312        C  0.41534147  0.08992001  0.94029547     0.74700
Zr313      Zr  0.00257776  0.07435920  0.94725359     2.77500
O314        O  0.00239760  0.16178695  0.94666335    -0.96100
O315        O  0.00195655  0.06965939  0.88253517    -0.76900
Zr316      Zr  0.00257058  0.07299858  0.72028400     2.70100
O317        O  0.00338648  0.16019915  0.72403591    -0.78100
O318        O  0.00199584  0.06399489  0.78476095    -0.97200
Zr319      Zr  0.43827532  0.00260052  0.66660516     2.21500
Zr320      Zr  0.06684754  0.50250680  0.99997006     2.11100
O321        O  0.03468213  0.07466633  0.66709751    -2.45900
O322        O  0.47032609  0.07470191  0.66710166    -0.77900
O323        O  0.03557165  0.50326373  0.94585542    -0.70100
O324        O  0.46965363  0.00197805  0.72071580    -2.31100
O325        O  0.46971857  0.00325133  0.94587334    -2.27300
O326        O  0.03553617  0.50192043  0.72072753    -0.71900
H327        H  0.04901587  0.40239129  0.66605476     0.80100
H328        H  0.45488952  0.00187422  0.74114900     0.82000
H329        H  0.04908666  0.10258939  0.00059476     0.83400
H330        H  0.45497661  0.00352348  0.92542542     0.81000
H331        H  0.48304032  0.45397786  0.79056935     0.44100
H332        H  0.02184323  0.04373413  0.79012954     0.43100
H333        H  0.50148110  0.17105952  0.69902363     0.42700
H334        H  0.02077088  0.17124460  0.96304222     0.40700
H335        H  0.01816279  0.04382807  0.87670348     0.43800
H336        H  0.48080718  0.45350221  0.87553138     0.38600
H337        H  0.49594876  0.33441827  0.96721070     0.44700
H338        H  0.01976352  0.33380100  0.70322321     0.41100
H339        H  0.01073158  0.17060353  0.92269607     0.46000
H340        H  0.50232483  0.40655247  0.87281512     0.44800
H341        H  0.51016134  0.33445921  0.74369012     0.44900
H342        H  0.00807927  0.09615237  0.79395841     0.45200
O343        O  0.30926398  0.35004200  0.76462398    -0.73600
O344        O  0.34836560  0.30609788  0.79513431    -0.52500
C345        C  0.33971622  0.33897989  0.77299816     0.80100
O346        O  0.19561656  0.34985896  0.90204969    -0.58200
O347        O  0.15653388  0.30632134  0.87118415    -0.51300
C348        C  0.16517476  0.33895617  0.89351862     0.72100
O349        O  0.30941390  0.35077792  0.90132058    -0.72800
O350        O  0.34846018  0.30658865  0.87093332    -0.53300
C351        C  0.33985209  0.33960352  0.89297654     0.78100
O352        O  0.19565383  0.34924478  0.76389552    -0.57900
O353        O  0.15659980  0.30583242  0.79491211    -0.51000
C354        C  0.16521919  0.33839065  0.77249551     0.74700
Zr355      Zr  0.25245662  0.32290987  0.77961562     2.54700
O356        O  0.25218395  0.41015585  0.77645363    -0.78500
O357        O  0.25194565  0.31508128  0.71502737    -0.91900
Zr358      Zr  0.25254635  0.32421840  0.88605554     2.64700
O359        O  0.25342481  0.41161269  0.88650326    -0.96900
O360        O  0.25200017  0.32042553  0.95083884    -0.78900
O361        O  0.28470355  0.32451951  0.83280529    -0.82300
O362        O  0.22041253  0.32472609  0.83286389    -2.17000
O363        O  0.19551836  0.15514846  0.76464735    -0.65700
O364        O  0.15647142  0.19886582  0.79541619    -0.50200
C365        C  0.16508876  0.16612157  0.77316023     0.73100
O366        O  0.30926279  0.15458752  0.90168075    -0.58600
O367        O  0.34834976  0.19896479  0.87147012    -0.50600
C368        C  0.33971547  0.16588534  0.89344959     0.74900
O369        O  0.19568708  0.15585951  0.90274641    -0.70000
O370        O  0.15663884  0.19937071  0.87180477    -0.48700
C371        C  0.16525884  0.16679063  0.89420408     0.76300
O372        O  0.30927621  0.15381654  0.76540959    -0.65300
O373        O  0.34833950  0.19829769  0.79556304    -0.52500
C374        C  0.33972039  0.16515354  0.77362881     0.74700
Zr375      Zr  0.25248407  0.18071439  0.78058697     2.77500
O376        O  0.25266430  0.09328664  0.77999656    -0.96100
O377        O  0.25310511  0.18541443  0.71586851    -0.76900
Zr378      Zr  0.25249121  0.18207516  0.88695074     2.70100
O379        O  0.25167519  0.09487464  0.89070245    -0.78100
O380        O  0.25306607  0.19107893  0.95142772    -0.97200
Zr381      Zr  0.31678655  0.25247297  0.83327183     2.21500
Zr382      Zr  0.18821437  0.25256689  0.83330338     2.11100
O383        O  0.22037967  0.18040715  0.83376420    -2.45900
O384        O  0.28473570  0.18037163  0.83376842    -0.77900
O385        O  0.21949023  0.25180993  0.77918875    -0.70100
O386        O  0.28540819  0.25309560  0.88738240    -2.31100
O387        O  0.28534334  0.25182216  0.77920659    -2.27300
O388        O  0.21952572  0.25315333  0.88739421    -0.71900
H389        H  0.20604594  0.35268233  0.83272146     0.80100
H390        H  0.30017223  0.25319949  0.90781543     0.81200
H391        H  0.20597509  0.15248383  0.83392814     0.83400
H392        H  0.30008527  0.25154991  0.75875865     0.81000
H393        H  0.27202125  0.30109593  0.95723603     0.44100
H394        H  0.23321898  0.21134033  0.95679633     0.43100
H395        H  0.25358004  0.08401442  0.86569007     0.42700
H396        H  0.23429118  0.08382883  0.79637560     0.40700
H397        H  0.23689849  0.21124528  0.71003679     0.43800
H398        H  0.27425461  0.30157101  0.70886467     0.38600
H399        H  0.25911318  0.42065540  0.80054391     0.44700
H400        H  0.23529796  0.42127247  0.86988977     0.41100
H401        H  0.24433014  0.08447008  0.75602933     0.46000
H402        H  0.25273751  0.34852127  0.70614839     0.44800
H403        H  0.24490075  0.42061469  0.91035651     0.44900
H404        H  0.24698215  0.15892164  0.96062520     0.45200
C405        C  0.11630979  0.11543698  0.74382508    -0.11600
C406        C  0.13858089  0.13886427  0.75696992    -0.13200
C407        C  0.13875211  0.13963650  0.91049165    -0.11600
C408        C  0.11648099  0.11620921  0.92363647    -0.13200
C409        C  0.13870043  0.36556954  0.75624778    -0.11600
C410        C  0.11639106  0.38892454  0.74310817    -0.13200
C411        C  0.38876531  0.11590245  0.74338073    -0.11600
C412        C  0.36630735  0.13842534  0.75705308    -0.13200
C413        C  0.38880298  0.38923425  0.92309973    -0.11600
C414        C  0.36642250  0.36646534  0.90948932    -0.13200
C415        C  0.38875450  0.11664829  0.92371980    -0.11600
C416        C  0.36629654  0.13917119  0.91004749    -0.13200
C417        C  0.13867081  0.36614900  0.90977493    -0.11600
C418        C  0.11636146  0.38950406  0.92291454    -0.13200
C419        C  0.36625891  0.36583922  0.75643307    -0.11600
C420        C  0.38863934  0.38860826  0.74282265    -0.13200
O421        O  0.44579801  0.90503146  0.26462391    -0.73600
O422        O  0.40669637  0.94897557  0.29513423    -0.52500
C423        C  0.41534577  0.91609357  0.27299808     0.80100
O424        O  0.05944530  0.90521455  0.06871630    -0.58200
O425        O  0.09852802  0.94875214  0.03785079    -0.51300
C426        C  0.08988709  0.91611731  0.06018525     0.72100
O427        O  0.44564792  0.90429570  0.06798739    -0.72800
O428        O  0.40660165  0.94848483  0.03759998    -0.53300
C429        C  0.41520974  0.91547008  0.05964328     0.78100
O430        O  0.05940807  0.90582873  0.26389549    -0.57900
O431        O  0.09846205  0.94924112  0.29491211    -0.51000
C432        C  0.08984270  0.91668289  0.27249549     0.74700
Zr433      Zr  0.50260531  0.93216364  0.27961569     2.54700
O434        O  0.50287804  0.84491764  0.27645383    -0.78500
O435        O  0.00311640  0.93999222  0.21502749    -0.91900
Zr436      Zr  0.50251552  0.93085524  0.05272229     2.64700
O437        O  0.50163694  0.84346100  0.05317040    -0.96900
O438        O  0.00306162  0.93464865  0.11750560    -0.78900
O439        O  0.47035838  0.93055399  0.33280532    -0.82300
O440        O  0.03464935  0.93034742  0.33286396    -2.17000
O441        O  0.05954351  0.59992514  0.26464735    -0.65700
O442        O  0.09859049  0.55620782  0.29541618    -0.50200
C443        C  0.08997312  0.58895208  0.27316022     0.73100
O444        O  0.44579905  0.60048615  0.06834739    -0.58600
O445        O  0.40671207  0.55610888  0.03813677    -0.50600
C446        C  0.41534638  0.58918833  0.06011624     0.74900
O447        O  0.05937480  0.59921409  0.06941301    -0.70000
O448        O  0.09842314  0.55570295  0.03847142    -0.48700
C449        C  0.08980307  0.58828302  0.06087072     0.76300
O450        O  0.44578559  0.60125709  0.26540954    -0.65300
O451        O  0.40672236  0.55677572  0.29556291    -0.52500
C452        C  0.41534142  0.58991993  0.27362873     0.74700
Zr453      Zr  0.00257778  0.57435919  0.28058696     2.77500
O454        O  0.00239763  0.66178685  0.27999675    -0.96100
O455        O  0.00195661  0.56965921  0.21586846    -0.76900
Zr456      Zr  0.00257063  0.57299852  0.05361734     2.70100
O457        O  0.00338654  0.66019901  0.05736907    -0.78100
O458        O  0.00199567  0.56399509  0.11809434    -0.97200
Zr459      Zr  0.43827525  0.50260062  0.99993852     2.21500
Zr460      Zr  0.06684751  0.00250665  0.33330342     2.11100
O461        O  0.03468223  0.57466656  0.00043083    -2.45900
O462        O  0.47032611  0.57470196  0.00043504    -0.77900
O463        O  0.03557166  0.00326367  0.27918877    -0.70100
O464        O  0.46965356  0.50197803  0.05404911    -2.31100
O465        O  0.46971856  0.50325140  0.27920670    -2.27300
O466        O  0.03553612  0.00192039  0.05406089    -0.71900
H467        H  0.04901592  0.90239116  0.99938825     0.80100
H468        H  0.45488941  0.50187413  0.07448223     0.82000
H469        H  0.04908690  0.60258999  0.33392824     0.83400
H470        H  0.45497665  0.50352363  0.25875874     0.81000
H471        H  0.48304049  0.95397792  0.12390274     0.44100
H472        H  0.02184292  0.54373415  0.12346303     0.43100
H473        H  0.50148140  0.67105923  0.03235674     0.42700
H474        H  0.02077092  0.67124447  0.29637564     0.40700
H475        H  0.01816271  0.54382770  0.21003673     0.43800
H476        H  0.48080729  0.95350216  0.20886477     0.38600
H477        H  0.49594881  0.83441813  0.30054413     0.44700
H478        H  0.01976356  0.83380109  0.03655670     0.41100
H479        H  0.01073161  0.67060341  0.25602946     0.46000
H480        H  0.50232476  0.90655224  0.20614850     0.44800
H481        H  0.51016144  0.83445924  0.07702353     0.44900
H482        H  0.00807926  0.59615263  0.12729178     0.45200
O483        O  0.30926396  0.85004208  0.09795719    -0.73600
O484        O  0.34836558  0.80609793  0.12846754    -0.52500
C485        C  0.33971620  0.83897993  0.10633139     0.80100
O486        O  0.19561659  0.84985889  0.23538292    -0.58200
O487        O  0.15653380  0.80632135  0.20451746    -0.51300
C488        C  0.16517476  0.83895612  0.22685193     0.72100
O489        O  0.30941395  0.85077805  0.23465394    -0.72800
O490        O  0.34846019  0.80658874  0.20426667    -0.53300
C491        C  0.33985212  0.83960361  0.22630989     0.78100
O492        O  0.19565378  0.84924484  0.09722876    -0.57900
O493        O  0.15659981  0.80583227  0.12824528    -0.51000
C494        C  0.16521915  0.83839056  0.10582872     0.74700
Zr495      Zr  0.25245657  0.82290986  0.11294891     2.54700
O496        O  0.25218376  0.91015580  0.10978678    -0.78500
O497        O  0.25194566  0.81508140  0.04836070    -0.91900
Zr498      Zr  0.25254640  0.82421843  0.21938878     2.64700
O499        O  0.25342488  0.91161266  0.21983668    -0.96900
O500        O  0.25200023  0.82042569  0.28417211    -0.78900
O501        O  0.28470360  0.82451967  0.16613852    -0.82300
O502        O  0.22041246  0.82472612  0.16619717    -2.17000
O503        O  0.19551833  0.65514835  0.09798074    -0.65700
O504        O  0.15647139  0.69886572  0.12874960    -0.50200
C505        C  0.16508875  0.66612150  0.10649361     0.73100
O506        O  0.30926281  0.65458742  0.23501391    -0.58600
O507        O  0.34834982  0.69896497  0.20480357    -0.50600
C508        C  0.33971550  0.66588537  0.22678291     0.74900
O509        O  0.19568714  0.65585947  0.23607974    -0.70000
O510        O  0.15663887  0.69937081  0.20513824    -0.48700
C511        C  0.16525889  0.66679068  0.22753751     0.76300
O512        O  0.30927623  0.65381659  0.09874292    -0.65300
O513        O  0.34833950  0.69829776  0.12889639    -0.52500
C514        C  0.33972042  0.66515362  0.10696216     0.74700
Zr515      Zr  0.25248408  0.68071436  0.11392026     2.77500
O516        O  0.25266437  0.59328665  0.11332996    -0.96100
O517        O  0.25310517  0.68541424  0.04920181    -0.76900
Zr518      Zr  0.25249126  0.68207520  0.22028405     2.70100
O519        O  0.25167524  0.59487464  0.22403609    -0.78100
O520        O  0.25306612  0.69107876  0.28476104    -0.97200
Zr521      Zr  0.31678657  0.75247308  0.16660519     2.21500
Zr522      Zr  0.18821432  0.75256688  0.16663669     2.11100
O523        O  0.22037975  0.68040727  0.16709751    -2.45900
O524        O  0.28473567  0.68037180  0.16710171    -0.77900
O525        O  0.21949020  0.75180985  0.11252203    -0.70100
O526        O  0.28540827  0.75309570  0.22071582    -2.31100
O527        O  0.28534332  0.75182217  0.11253997    -2.27300
O528        O  0.21952578  0.75315336  0.22072744    -0.71900
H529        H  0.20604591  0.85268241  0.16605471     0.80100
H530        H  0.30017237  0.75319965  0.24114902     0.81200
H531        H  0.20597528  0.65248413  0.16726152     0.83400
H532        H  0.30008528  0.75154988  0.09209206     0.81000
H533        H  0.27202129  0.80109609  0.29056936     0.44100
H534        H  0.23321910  0.71134016  0.29012969     0.43100
H535        H  0.25357932  0.58401413  0.19902372     0.42700
H536        H  0.23429117  0.58382894  0.12970895     0.40700
H537        H  0.23689853  0.71124505  0.04337012     0.43800
H538        H  0.27425460  0.80157117  0.04219809     0.38600
H539        H  0.25911321  0.92065537  0.13387699     0.44700
H540        H  0.23529816  0.92127239  0.20322314     0.41100
H541        H  0.24433029  0.58447010  0.08936271     0.46000
H542        H  0.25273753  0.84852145  0.03948171     0.44800
H543        H  0.24490062  0.92061452  0.24368995     0.44900
H544        H  0.24698217  0.65892145  0.29395849     0.45200
C545        C  0.11630975  0.61543716  0.07715835    -0.11600
C546        C  0.13858084  0.63886437  0.09030323    -0.13200
C547        C  0.13875214  0.63963663  0.24382509    -0.11600
C548        C  0.11648101  0.61620937  0.25696989    -0.13200
C549        C  0.13870035  0.86556935  0.08958103    -0.11600
C550        C  0.11639099  0.88892443  0.07644151    -0.13200
C551        C  0.38876532  0.61590248  0.07671413    -0.11600
C552        C  0.36630737  0.63842539  0.09038646    -0.13200
C553        C  0.38880308  0.88923426  0.25643300    -0.11600
C554        C  0.36642260  0.86646535  0.24282261    -0.13200
C555        C  0.38875442  0.61664807  0.25705307    -0.11600
C556        C  0.36629651  0.63917112  0.24338080    -0.13200
C557        C  0.13867087  0.86614894  0.24310832    -0.11600
C558        C  0.11636147  0.88950401  0.25624782    -0.13200
C559        C  0.36625892  0.86583924  0.08976639    -0.11600
C560        C  0.38863931  0.88860831  0.07615602    -0.13200
O561        O  0.44579802  0.90503147  0.59795721    -0.73600
O562        O  0.40669638  0.94897558  0.62846753    -0.52500
C563        C  0.41534578  0.91609358  0.60633138     0.80100
O564        O  0.05944527  0.90521458  0.40204958    -0.58200
O565        O  0.09852804  0.94875212  0.37118411    -0.51300
C566        C  0.08988709  0.91611730  0.39351855     0.72100
O567        O  0.44564792  0.90429571  0.40132068    -0.72800
O568        O  0.40660166  0.94848484  0.37093328    -0.53300
C569        C  0.41520974  0.91547008  0.39297657     0.78100
O570        O  0.05940808  0.90582874  0.59722880    -0.57900
O571        O  0.09846204  0.94924116  0.62824543    -0.51000
C572        C  0.08984270  0.91668290  0.60582883     0.74700
Zr573      Zr  0.50260531  0.93216366  0.61294899     2.54700
O574        O  0.50287804  0.84491765  0.60978712    -0.78500
O575        O  0.00311642  0.93999223  0.54836079    -0.91900
Zr576      Zr  0.50251552  0.93085526  0.38605561     2.64700
O577        O  0.50163695  0.84346100  0.38650370    -0.96900
O578        O  0.00306162  0.93464865  0.45083890    -0.78900
O579        O  0.47035838  0.93055400  0.66613862    -0.82300
O580        O  0.03464935  0.93034744  0.66619726    -2.17000
O581        O  0.05954348  0.59992522  0.59798061    -0.65700
O582        O  0.09859040  0.55620784  0.62874947    -0.50200
C583        C  0.08997307  0.58895212  0.60649350     0.73100
O584        O  0.44579904  0.60048616  0.40168069    -0.58600
O585        O  0.40671208  0.55610888  0.37147006    -0.50600
C586        C  0.41534638  0.58918834  0.39344952     0.74900
O587        O  0.05937479  0.59921409  0.40274632    -0.70000
O588        O  0.09842316  0.55570298  0.37180475    -0.48700
C589        C  0.08980307  0.58828302  0.39420407     0.76300
O590        O  0.44578556  0.60125711  0.59874303    -0.65300
O591        O  0.40672225  0.55677566  0.62889622    -0.52500
C592        C  0.41534136  0.58991992  0.60696211     0.74700
Zr593      Zr  0.00257778  0.57435920  0.61392027     2.77500
O594        O  0.00239742  0.66178684  0.61333005    -0.96100
O595        O  0.00195661  0.56965922  0.54920177    -0.76900
Zr596      Zr  0.00257061  0.57299851  0.38695068     2.70100
O597        O  0.00338654  0.66019903  0.39070237    -0.78100
O598        O  0.00199568  0.56399510  0.45142766    -0.97200
Zr599      Zr  0.43827526  0.50260059  0.33327185     2.21500
Zr600      Zr  0.06684751  0.00250668  0.66663672     2.11100
O601        O  0.03468224  0.57466655  0.33376421    -2.45900
O602        O  0.47032610  0.57470194  0.33376836    -0.77900
O603        O  0.03557167  0.00326369  0.61252207    -0.70100
O604        O  0.46965349  0.50197803  0.38738256    -2.31100
O605        O  0.46971855  0.50325142  0.61253999    -2.27300
O606        O  0.03553607  0.00192036  0.38739422    -0.71900
H607        H  0.04901589  0.90239113  0.33272150     0.80100
H608        H  0.45488928  0.50187413  0.40781584     0.82000
H609        H  0.04908691  0.60259001  0.66726154     0.83400
H610        H  0.45497665  0.50352365  0.59209203     0.81000
H611        H  0.48304037  0.95397803  0.45723601     0.44100
H612        H  0.02184293  0.54373416  0.45679633     0.43100
H613        H  0.50148138  0.67105925  0.36569001     0.42700
H614        H  0.02077062  0.67124455  0.62970905     0.40700
H615        H  0.01816284  0.54382790  0.54337003     0.43800
H616        H  0.48080737  0.95350217  0.54219809     0.38600
H617        H  0.49594881  0.83441814  0.63387742     0.44700
H618        H  0.01976365  0.83380113  0.36989000     0.41100
H619        H  0.01073147  0.67060343  0.58936281     0.46000
H620        H  0.50232478  0.90655221  0.53948178     0.44800
H621        H  0.51016129  0.83445924  0.41035687     0.44900
H622        H  0.00807927  0.59615264  0.46062508     0.45200
O623        O  0.30926398  0.85004210  0.43129054    -0.73600
O624        O  0.34836559  0.80609795  0.46180089    -0.52500
C625        C  0.33971621  0.83897997  0.43966475     0.80100
O626        O  0.19561658  0.84985884  0.56871640    -0.58200
O627        O  0.15653383  0.80632142  0.53785077    -0.51300
C628        C  0.16517477  0.83895614  0.56018531     0.72100
O629        O  0.30941396  0.85077806  0.56798726    -0.72800
O630        O  0.34846019  0.80658875  0.53759997    -0.53300
C631        C  0.33985213  0.83960362  0.55964319     0.78100
O632        O  0.19565376  0.84924487  0.43056224    -0.57900
O633        O  0.15659979  0.80583231  0.46157874    -0.51000
C634        C  0.16521913  0.83839059  0.43916219     0.74700
Zr635      Zr  0.25245658  0.82290991  0.44628226     2.54700
O636        O  0.25218376  0.91015581  0.44312008    -0.78500
O637        O  0.25194566  0.81508142  0.38169402    -0.91900
Zr638      Zr  0.25254640  0.82421844  0.55272219     2.64700
O639        O  0.25342486  0.91161266  0.55316996    -0.96900
O640        O  0.25200024  0.82042569  0.61750551    -0.78900
O641        O  0.28470357  0.82451968  0.49947189    -0.82300
O642        O  0.22041250  0.82472613  0.49953059    -2.17000
O643        O  0.19551834  0.65514837  0.43131404    -0.65700
O644        O  0.15647142  0.69886574  0.46208290    -0.50200
C645        C  0.16508876  0.66612153  0.43982691     0.73100
O646        O  0.30926282  0.65458743  0.56834723    -0.58600
O647        O  0.34834982  0.69896498  0.53813686    -0.50600
C648        C  0.33971551  0.66588538  0.56011621     0.74900
O649        O  0.19568713  0.65585967  0.56941311    -0.70000
O650        O  0.15663884  0.69937083  0.53847150    -0.48700
C651        C  0.16525887  0.66679077  0.56087081     0.76300
O652        O  0.30927624  0.65381660  0.43207627    -0.65300
O653        O  0.34833951  0.69829777  0.46222974    -0.52500
C654        C  0.33972043  0.66515361  0.44029552     0.74700
Zr655      Zr  0.25248408  0.68071441  0.44725357     2.77500
O656        O  0.25266436  0.59328668  0.44666325    -0.96100
O657        O  0.25310518  0.68541425  0.38253511    -0.76900
Zr658      Zr  0.25249128  0.68207522  0.55361743     2.70100
O659        O  0.25167524  0.59487462  0.55736914    -0.78100
O660        O  0.25306613  0.69107876  0.61809442    -0.97200
Zr661      Zr  0.31678656  0.75247309  0.49993850     2.21500
Zr662      Zr  0.18821435  0.75256690  0.49997002     2.11100
O663        O  0.22037978  0.68040729  0.50043086    -2.45900
O664        O  0.28473564  0.68037183  0.50043506    -0.77900
O665        O  0.21949019  0.75180994  0.44585533    -0.70100
O666        O  0.28540829  0.75309571  0.55404915    -2.31100
O667        O  0.28534332  0.75182219  0.44587327    -2.27300
O668        O  0.21952579  0.75315337  0.55406077    -0.71900
H669        H  0.20604594  0.85268240  0.49938823     0.80100
H670        H  0.30017242  0.75319965  0.57448232     0.81200
H671        H  0.20597530  0.65248416  0.50059485     0.83400
H672        H  0.30008529  0.75154990  0.42542536     0.81000
H673        H  0.27202132  0.80109608  0.62390270     0.44100
H674        H  0.23321916  0.71134030  0.62346304     0.43100
H675        H  0.25357962  0.58401429  0.53235674     0.42700
H676        H  0.23429130  0.58382896  0.46304240     0.40700
H677        H  0.23689854  0.71124506  0.37670341     0.43800
H678        H  0.27425460  0.80157118  0.37553140     0.38600
H679        H  0.25911315  0.92065538  0.46721030     0.44700
H680        H  0.23529804  0.92127236  0.53655637     0.41100
H681        H  0.24433008  0.58447010  0.42269605     0.46000
H682        H  0.25273753  0.84852146  0.37281501     0.44800
H683        H  0.24490067  0.92061455  0.57702317     0.44900
H684        H  0.24698206  0.65892146  0.62729183     0.45200
C685        C  0.11630973  0.61543712  0.41049176    -0.11600
C686        C  0.13858084  0.63886437  0.42363658    -0.13200
C687        C  0.13875215  0.63963664  0.57715839    -0.11600
C688        C  0.11648101  0.61620936  0.59030319    -0.13200
C689        C  0.13870033  0.86556939  0.42291447    -0.11600
C690        C  0.11639098  0.88892443  0.40977487    -0.13200
C691        C  0.38876532  0.61590249  0.41004743    -0.11600
C692        C  0.36630738  0.63842538  0.42371980    -0.13200
C693        C  0.38880309  0.88923427  0.58976630    -0.11600
C694        C  0.36642261  0.86646536  0.57615590    -0.13200
C695        C  0.38875443  0.61664809  0.59038636    -0.11600
C696        C  0.36629652  0.63917114  0.57671408    -0.13200
C697        C  0.13867086  0.86614894  0.57644168    -0.11600
C698        C  0.11636149  0.88950397  0.58958123    -0.13200
C699        C  0.36625893  0.86583926  0.42309973    -0.11600
C700        C  0.38863931  0.88860832  0.40948932    -0.13200
O701        O  0.44579798  0.90503154  0.93129056    -0.73600
O702        O  0.40669633  0.94897564  0.96180087    -0.52500
C703        C  0.41534573  0.91609362  0.93966475     0.80100
O704        O  0.05944527  0.90521459  0.73538288    -0.58200
O705        O  0.09852804  0.94875213  0.70451740    -0.51300
C706        C  0.08988709  0.91611731  0.72685185     0.72100
O707        O  0.44564793  0.90429566  0.73465398    -0.72800
O708        O  0.40660167  0.94848495  0.70426671    -0.53300
C709        C  0.41520975  0.91547009  0.72630994     0.78100
O710        O  0.05940809  0.90582867  0.93056226    -0.57900
O711        O  0.09846208  0.94924105  0.96157888    -0.51000
C712        C  0.08984272  0.91668282  0.93916228     0.74700
Zr713      Zr  0.50260532  0.93216367  0.94628232     2.54700
O714        O  0.50287805  0.84491766  0.94312042    -0.78500
O715        O  0.00311643  0.93999223  0.88169410    -0.91900
Zr716      Zr  0.50251552  0.93085527  0.71938891     2.64700
O717        O  0.50163696  0.84346102  0.71983699    -0.96900
O718        O  0.00306163  0.93464866  0.78417220    -0.78900
O719        O  0.47035839  0.93055400  0.99947197    -0.82300
O720        O  0.03464937  0.93034744  0.99953063    -2.17000
O721        O  0.05954352  0.59992516  0.93131395    -0.65700
O722        O  0.09859049  0.55620783  0.96208278    -0.50200
C723        C  0.08997313  0.58895210  0.93982681     0.73100
O724        O  0.44579905  0.60048617  0.73501398    -0.58600
O725        O  0.40671208  0.55610890  0.70480335    -0.50600
C726        C  0.41534639  0.58918835  0.72678282     0.74900
O727        O  0.05937480  0.59921410  0.73607961    -0.70000
O728        O  0.09842316  0.55570299  0.70513804    -0.48700
C729        C  0.08980308  0.58828303  0.72753736     0.76300
O730        O  0.44578556  0.60125712  0.93207634    -0.65300
O731        O  0.40672228  0.55677564  0.96222956    -0.52500
C732        C  0.41534137  0.58991993  0.94029546     0.74700
Zr733      Zr  0.00257778  0.57435920  0.94725362     2.77500
O734        O  0.00239765  0.66178687  0.94666336    -0.96100
O735        O  0.00195660  0.56965923  0.88253517    -0.76900
Zr736      Zr  0.00257061  0.57299851  0.72028398     2.70100
O737        O  0.00338655  0.66019901  0.72403592    -0.78100
O738        O  0.00199570  0.56399474  0.78476093    -0.97200
Zr739      Zr  0.43827525  0.50260062  0.66660515     2.21500
Zr740      Zr  0.06684751  0.00250667  0.99997006     2.11100
O741        O  0.03468224  0.57466657  0.66709751    -2.45900
O742        O  0.47032611  0.57470195  0.66710166    -0.77900
O743        O  0.03557168  0.00326369  0.94585538    -0.70100
O744        O  0.46965349  0.50197804  0.72071585    -2.31100
O745        O  0.46971854  0.50325142  0.94587336    -2.27300
O746        O  0.03553607  0.00192038  0.72072752    -0.71900
H747        H  0.04901589  0.90239115  0.66605480     0.80100
H748        H  0.45488929  0.50187414  0.74114914     0.82000
H749        H  0.04908690  0.60258998  0.00059476     0.83400
H750        H  0.45497663  0.50352366  0.92542540     0.81000
H751        H  0.48304038  0.95397804  0.79056931     0.44100
H752        H  0.02184309  0.54373391  0.79012959     0.43100
H753        H  0.50148141  0.67105935  0.69902360     0.42700
H754        H  0.02077101  0.67124453  0.96304224     0.40700
H755        H  0.01816285  0.54382791  0.87670350     0.43800
H756        H  0.48080737  0.95350218  0.87553139     0.38600
H757        H  0.49594882  0.83441814  0.96721071     0.44700
H758        H  0.01976366  0.83380114  0.70322330     0.41100
H759        H  0.01073157  0.67060341  0.92269607     0.46000
H760        H  0.50232478  0.90655222  0.87281508     0.44800
H761        H  0.51016141  0.83445927  0.74369011     0.44900
H762        H  0.00807913  0.59615223  0.79395841     0.45200
O763        O  0.30926398  0.85004212  0.76462401    -0.73600
O764        O  0.34836563  0.80609801  0.79513433    -0.52500
C765        C  0.33971623  0.83897998  0.77299817     0.80100
O766        O  0.19561659  0.84985885  0.90204969    -0.58200
O767        O  0.15653383  0.80632144  0.87118408    -0.51300
C768        C  0.16517477  0.83895616  0.89351860     0.72100
O769        O  0.30941396  0.85077807  0.90132057    -0.72800
O770        O  0.34846021  0.80658878  0.87093330    -0.53300
C771        C  0.33985214  0.83960362  0.89297654     0.78100
O772        O  0.19565377  0.84924487  0.76389553    -0.57900
O773        O  0.15659980  0.80583231  0.79491205    -0.51000
C774        C  0.16521914  0.83839060  0.77249549     0.74700
Zr775      Zr  0.25245658  0.82290989  0.77961561     2.54700
O776        O  0.25218377  0.91015583  0.77645362    -0.78500
O777        O  0.25194567  0.81508144  0.71502733    -0.91900
Zr778      Zr  0.25254640  0.82421838  0.88605553     2.64700
O779        O  0.25342487  0.91161266  0.88650326    -0.96900
O780        O  0.25200025  0.82042571  0.95083883    -0.78900
O781        O  0.28470357  0.82451967  0.83280525    -0.82300
O782        O  0.22041249  0.82472612  0.83286391    -2.17000
O783        O  0.19551836  0.65514839  0.76464735    -0.65700
O784        O  0.15647142  0.69886576  0.79541621    -0.50200
C785        C  0.16508877  0.66612155  0.77316021     0.73100
O786        O  0.30926285  0.65458747  0.90168069    -0.58600
O787        O  0.34834980  0.69896492  0.87147017    -0.50600
C788        C  0.33971552  0.66588538  0.89344958     0.74900
O789        O  0.19568712  0.65585944  0.90274636    -0.70000
O790        O  0.15663887  0.69937082  0.87180484    -0.48700
C791        C  0.16525888  0.66679069  0.89420411     0.76300
O792        O  0.30927623  0.65381641  0.76540964    -0.65300
O793        O  0.34833947  0.69829777  0.79556300    -0.52500
C794        C  0.33972042  0.66515353  0.77362882     0.74700
Zr795      Zr  0.25248410  0.68071436  0.78058696     2.77500
O796        O  0.25266415  0.59328664  0.77999657    -0.96100
O797        O  0.25310517  0.68541427  0.71586851    -0.76900
Zr798      Zr  0.25249127  0.68207508  0.88695076     2.70100
O799        O  0.25167525  0.59487451  0.89070269    -0.78100
O800        O  0.25306611  0.69107877  0.95142772    -0.97200
Zr801      Zr  0.31678657  0.75247308  0.83327183     2.21500
Zr802      Zr  0.18821436  0.75256689  0.83330339     2.11100
O803        O  0.22037976  0.68040726  0.83376421    -2.45900
O804        O  0.28473568  0.68037178  0.83376842    -0.77900
O805        O  0.21949024  0.75180986  0.77918878    -0.70100
O806        O  0.28540826  0.75309556  0.88738245    -2.31100
O807        O  0.28534333  0.75182217  0.77920659    -2.27300
O808        O  0.21952579  0.75315328  0.88739419    -0.71900
H809        H  0.20604594  0.85268241  0.83272150     0.80100
H810        H  0.30017241  0.75319939  0.90781561     0.81200
H811        H  0.20597526  0.65248414  0.83392814     0.83400
H812        H  0.30008528  0.75154986  0.75875866     0.81000
H813        H  0.27202132  0.80109608  0.95723600     0.44100
H814        H  0.23321908  0.71134032  0.95679632     0.43100
H815        H  0.25357960  0.58401414  0.86569030     0.42700
H816        H  0.23429104  0.58382895  0.79637567     0.40700
H817        H  0.23689868  0.71124527  0.71003679     0.43800
H818        H  0.27425461  0.80157120  0.70886470     0.38600
H819        H  0.25911323  0.92065530  0.80054385     0.44700
H820        H  0.23529800  0.92127237  0.86988978     0.41100
H821        H  0.24432989  0.58447020  0.75602938     0.46000
H822        H  0.25273754  0.84852147  0.70614831     0.44800
H823        H  0.24490079  0.92061459  0.91035652     0.44900
H824        H  0.24698210  0.65892152  0.96062518     0.45200
C825        C  0.11630974  0.61543713  0.74382505    -0.11600
C826        C  0.13858085  0.63886438  0.75696987    -0.13200
C827        C  0.13875214  0.63963666  0.91049168    -0.11600
C828        C  0.11648101  0.61620938  0.92363648    -0.13200
C829        C  0.13870034  0.86556940  0.75624777    -0.11600
C830        C  0.11639099  0.88892444  0.74310817    -0.13200
C831        C  0.38876533  0.61590251  0.74338072    -0.11600
C832        C  0.36630739  0.63842538  0.75705309    -0.13200
C833        C  0.38880305  0.88923420  0.92309976    -0.11600
C834        C  0.36642258  0.86646529  0.90948936    -0.13200
C835        C  0.38875442  0.61664814  0.92371978    -0.11600
C836        C  0.36629654  0.63917117  0.91004744    -0.13200
C837        C  0.13867086  0.86614896  0.90977497    -0.11600
C838        C  0.11636149  0.88950395  0.92291457    -0.13200
C839        C  0.36625892  0.86583923  0.75643307    -0.11600
C840        C  0.38863931  0.88860828  0.74282265    -0.13200
O841        O  0.94579795  0.40503135  0.26462393    -0.73600
O842        O  0.90669632  0.44897548  0.29513427    -0.52500
C843        C  0.91534571  0.41609349  0.27299810     0.80100
O844        O  0.55944529  0.40521461  0.06871634    -0.58200
O845        O  0.59852799  0.44875206  0.03785071    -0.51300
C846        C  0.58988708  0.41611731  0.06018523     0.72100
O847        O  0.94564796  0.40429585  0.06798738    -0.72800
O848        O  0.90660162  0.44848491  0.03760004    -0.53300
C849        C  0.91520976  0.41547014  0.05964331     0.78100
O850        O  0.55940801  0.40582861  0.26389553    -0.57900
O851        O  0.59846195  0.44924120  0.29491207    -0.51000
C852        C  0.58984263  0.41668289  0.27249550     0.74700
Zr853      Zr  0.00260526  0.43216373  0.27961569     2.54700
O854        O  0.00287802  0.34491777  0.27645382    -0.78500
O855        O  0.50311630  0.43999241  0.21502750    -0.91900
Zr856      Zr  0.00251554  0.43085531  0.05272227     2.64700
O857        O  0.00163693  0.34346099  0.05317041    -0.96900
O858        O  0.50306153  0.43464848  0.11750560    -0.78900
O859        O  0.97035832  0.43055415  0.33280532    -0.82300
O860        O  0.53464932  0.43034760  0.33286393    -2.17000
O861        O  0.55954348  0.09992519  0.26464739    -0.65700
O862        O  0.59859040  0.05620765  0.29541615    -0.50200
C863        C  0.58997308  0.08895198  0.27316022     0.73100
O864        O  0.94579901  0.10048621  0.06834735    -0.58600
O865        O  0.90671207  0.05610874  0.03813682    -0.50600
C866        C  0.91534634  0.08918830  0.06011623     0.74900
O867        O  0.55937480  0.09921421  0.06941303    -0.70000
O868        O  0.59842302  0.05570295  0.03847137    -0.48700
C869        C  0.58980304  0.08828302  0.06087072     0.76300
O870        O  0.94578561  0.10125702  0.26540951    -0.65300
O871        O  0.90672236  0.05677582  0.29556299    -0.52500
C872        C  0.91534144  0.08991998  0.27362876     0.74700
Zr873      Zr  0.50257775  0.07435920  0.28058694     2.77500
O874        O  0.50239757  0.16178693  0.27999676    -0.96100
O875        O  0.50195652  0.06965937  0.21586846    -0.76900
Zr876      Zr  0.50257066  0.07299858  0.05361737     2.70100
O877        O  0.50338669  0.16019915  0.05736906    -0.78100
O878        O  0.50199583  0.06399487  0.11809433    -0.97200
Zr879      Zr  0.93827532  0.00260053  0.99993852     2.21500
Zr880      Zr  0.56684753  0.50250678  0.33330342     2.11100
O881        O  0.53468213  0.07466631  0.00043080    -2.45900
O882        O  0.97032618  0.07470185  0.00043504    -0.77900
O883        O  0.53557169  0.50326372  0.27918877    -0.70100
O884        O  0.96965369  0.00197804  0.05404907    -2.31100
O885        O  0.96971858  0.00325132  0.27920667    -2.27300
O886        O  0.53553615  0.50192042  0.05406091    -0.71900
H887        H  0.54901582  0.40239131  0.99938825     0.80100
H888        H  0.95488963  0.00187421  0.07448209     0.82000
H889        H  0.54908667  0.10258940  0.33392820     0.83400
H890        H  0.95497661  0.00352346  0.25875876     0.81000
H891        H  0.98304052  0.45397821  0.12390274     0.44100
H892        H  0.52184320  0.04373394  0.12346300     0.43100
H893        H  0.00148087  0.17105939  0.03235678     0.42700
H894        H  0.52077080  0.17124456  0.29637574     0.40700
H895        H  0.51816274  0.04382805  0.21003671     0.43800
H896        H  0.98080720  0.45350216  0.20886478     0.38600
H897        H  0.99594872  0.33441825  0.30054409     0.44700
H898        H  0.51976339  0.33380101  0.03655661     0.41100
H899        H  0.51073164  0.17060349  0.25602953     0.46000
H900        H  0.00232486  0.40655241  0.20614852     0.44800
H901        H  0.01016142  0.33445918  0.07702354     0.44900
H902        H  0.50807931  0.09615228  0.12729179     0.45200
O903        O  0.80926394  0.35004198  0.09795715    -0.73600
O904        O  0.84836556  0.30609784  0.12846750    -0.52500
C905        C  0.83971618  0.33897986  0.10633136     0.80100
O906        O  0.69561656  0.34985897  0.23538290    -0.58200
O907        O  0.65653382  0.30632124  0.20451752    -0.51300
C908        C  0.66517475  0.33895611  0.22685195     0.72100
O909        O  0.80941390  0.35077783  0.23465391    -0.72800
O910        O  0.84846025  0.30658862  0.20426671    -0.53300
C911        C  0.83985210  0.33960350  0.22630989     0.78100
O912        O  0.69565387  0.34924481  0.09722871    -0.57900
O913        O  0.65659992  0.30583238  0.12824536    -0.51000
C914        C  0.66521925  0.33839065  0.10582877     0.74700
Zr915      Zr  0.75245660  0.32290983  0.11294892     2.54700
O916        O  0.75218391  0.41015582  0.10978679    -0.78500
O917        O  0.75194560  0.31508122  0.04836073    -0.91900
Zr918      Zr  0.75254636  0.32421836  0.21938879     2.64700
O919        O  0.75342479  0.41161267  0.21983667    -0.96900
O920        O  0.75200013  0.32042585  0.28417211    -0.78900
O921        O  0.78470357  0.32451947  0.16613856    -0.82300
O922        O  0.72041247  0.32472608  0.16619715    -2.17000
O923        O  0.69551834  0.15514846  0.09798075    -0.65700
O924        O  0.65647137  0.19886577  0.12874958    -0.50200
C925        C  0.66508873  0.16612154  0.10649363     0.73100
O926        O  0.80926281  0.15458742  0.23501397    -0.58600
O927        O  0.84834983  0.19896482  0.20480352    -0.50600
C928        C  0.83971549  0.16588532  0.22678293     0.74900
O929        O  0.69568710  0.15585954  0.23607978    -0.70000
O930        O  0.65663881  0.19937070  0.20513816    -0.48700
C931        C  0.66525883  0.16679063  0.22753748     0.76300
O932        O  0.80927623  0.15381650  0.09874291    -0.65300
O933        O  0.84833948  0.19829768  0.12889639    -0.52500
C934        C  0.83972039  0.16515358  0.10696213     0.74700
Zr935      Zr  0.75248410  0.18071438  0.11392027     2.77500
O936        O  0.75266426  0.09328662  0.11332996    -0.96100
O937        O  0.75310532  0.18541440  0.04920182    -0.76900
Zr938      Zr  0.75249128  0.18207517  0.22028403     2.70100
O939        O  0.75167515  0.09487464  0.22403585    -0.78100
O940        O  0.75306623  0.19107889  0.28476101    -0.97200
Zr941      Zr  0.81678663  0.25247298  0.16660521     2.21500
Zr942      Zr  0.68821435  0.25256683  0.16663670     2.11100
O943        O  0.72037971  0.18040713  0.16709750    -2.45900
O944        O  0.78473577  0.18037166  0.16710170    -0.77900
O945        O  0.71949020  0.25180987  0.11252201    -0.70100
O946        O  0.78540835  0.25309563  0.22071587    -2.31100
O947        O  0.78534335  0.25182218  0.11254001    -2.27300
O948        O  0.71952577  0.25315328  0.22072746    -0.71900
H949        H  0.70604588  0.35268232  0.16605469     0.80100
H950        H  0.80017256  0.25319954  0.24114915     0.81200
H951        H  0.70597512  0.15248381  0.16726149     0.83400
H952        H  0.80008526  0.25154997  0.09209205     0.81000
H953        H  0.77202108  0.30109601  0.29056939     0.44100
H954        H  0.73321920  0.21134037  0.29012964     0.43100
H955        H  0.75357975  0.08401430  0.19902347     0.42700
H956        H  0.73429113  0.08382893  0.12970901     0.40700
H957        H  0.73689856  0.21124506  0.04337010     0.43800
H958        H  0.77425459  0.30157095  0.04219805     0.38600
H959        H  0.75911314  0.42065547  0.13387705     0.44700
H960        H  0.73529808  0.42127248  0.20322313     0.41100
H961        H  0.74433009  0.08447000  0.08936274     0.46000
H962        H  0.75273745  0.34852120  0.03948175     0.44800
H963        H  0.74490055  0.42061462  0.24368994     0.44900
H964        H  0.74698228  0.15892160  0.29395853     0.45200
C965        C  0.61630978  0.11543700  0.07715836    -0.11600
C966        C  0.63858086  0.13886426  0.09030328    -0.13200
C967        C  0.63875211  0.13963649  0.24382506    -0.11600
C968        C  0.61648100  0.11620918  0.25696989    -0.13200
C969        C  0.63870043  0.36556954  0.08958117    -0.11600
C970        C  0.61639102  0.38892452  0.07644159    -0.13200
C971        C  0.88876529  0.11590250  0.07671408    -0.11600
C972        C  0.86630736  0.13842545  0.09038639    -0.13200
C973        C  0.88880297  0.38923430  0.25643297    -0.11600
C974        C  0.86642248  0.36646541  0.24282258    -0.13200
C975        C  0.88875448  0.11664822  0.25705308    -0.11600
C976        C  0.86629652  0.13917116  0.24338084    -0.13200
C977        C  0.63867083  0.36614898  0.24310828    -0.11600
C978        C  0.61636147  0.38950410  0.25624782    -0.13200
C979        C  0.86625890  0.36583924  0.08976639    -0.11600
C980        C  0.88863937  0.38860825  0.07615605    -0.13200
O981        O  0.94579796  0.40503137  0.59795723    -0.73600
O982        O  0.90669633  0.44897550  0.62846757    -0.52500
C983        C  0.91534571  0.41609351  0.60633140     0.80100
O984        O  0.55944529  0.40521461  0.40204964    -0.58200
O985        O  0.59852801  0.44875205  0.37118402    -0.51300
C986        C  0.58988709  0.41611730  0.39351853     0.72100
O987        O  0.94564796  0.40429586  0.40132067    -0.72800
O988        O  0.90660162  0.44848492  0.37093334    -0.53300
C989        C  0.91520976  0.41547015  0.39297660     0.78100
O990        O  0.55940803  0.40582882  0.59722879    -0.57900
O991        O  0.59846198  0.44924125  0.62824542    -0.51000
C992        C  0.58984266  0.41668298  0.60582884     0.74700
Zr993      Zr  0.00260527  0.43216375  0.61294898     2.54700
O994        O  0.00287802  0.34491780  0.60978686    -0.78500
O995        O  0.50311630  0.43999243  0.54836079    -0.91900
Zr996      Zr  0.00251553  0.43085533  0.38605558     2.64700
O997        O  0.00163693  0.34346099  0.38650370    -0.96900
O998        O  0.50306154  0.43464849  0.45083891    -0.78900
O999        O  0.97035832  0.43055415  0.66613862    -0.82300
O1000       O  0.53464932  0.43034761  0.66619722    -2.17000
O1001       O  0.55954349  0.09992523  0.59798065    -0.65700
O1002       O  0.59859040  0.05620783  0.62874952    -0.50200
C1003       C  0.58997308  0.08895209  0.60649352     0.73100
O1004       O  0.94579902  0.10048622  0.40168064    -0.58600
O1005       O  0.90671208  0.05610875  0.37147011    -0.50600
C1006       C  0.91534635  0.08918831  0.39344952     0.74900
O1007       O  0.55937480  0.09921422  0.40274634    -0.70000
O1008       O  0.59842304  0.05570298  0.37180470    -0.48700
C1009       C  0.58980304  0.08828303  0.39420407     0.76300
O1010       O  0.94578561  0.10125710  0.59874297    -0.65300
O1011       O  0.90672233  0.05677577  0.62889628    -0.52500
C1012       C  0.91534143  0.08992000  0.60696212     0.74700
Zr1013     Zr  0.50257776  0.07435921  0.61392024     2.77500
O1014       O  0.50239756  0.16178696  0.61333004    -0.96100
O1015       O  0.50195652  0.06965939  0.54920176    -0.76900
Zr1016     Zr  0.50257063  0.07299857  0.38695070     2.70100
O1017       O  0.50338669  0.16019917  0.39070236    -0.78100
O1018       O  0.50199583  0.06399488  0.45142765    -0.97200
Zr1019     Zr  0.93827531  0.00260053  0.33327184     2.21500
Zr1020     Zr  0.56684752  0.50250681  0.66663672     2.11100
O1021       O  0.53468214  0.07466631  0.33376419    -2.45900
O1022       O  0.97032617  0.07470184  0.33376835    -0.77900
O1023       O  0.53557169  0.50326373  0.61252207    -0.70100
O1024       O  0.96965358  0.00197808  0.38738251    -2.31100
O1025       O  0.96971858  0.00325132  0.61253997    -2.27300
O1026       O  0.53553613  0.50192043  0.38739424    -0.71900
H1027       H  0.54901583  0.40239129  0.33272146     0.80100
H1028       H  0.95488946  0.00187427  0.40781570     0.82000
H1029       H  0.54908664  0.10258942  0.66726153     0.83400
H1030       H  0.95497662  0.00352348  0.59209206     0.81000
H1031       H  0.98304033  0.45397780  0.45723605     0.44100
H1032       H  0.52184325  0.04373411  0.45679632     0.43100
H1033       H  0.00148086  0.17105942  0.36569008     0.42700
H1034       H  0.52077077  0.17124459  0.62970897     0.40700
H1035       H  0.51816274  0.04382806  0.54337001     0.43800
H1036       H  0.98080720  0.45350218  0.54219807     0.38600
H1037       H  0.99594903  0.33441817  0.63387720     0.44700
H1038       H  0.51976358  0.33380100  0.36989011     0.41100
H1039       H  0.51073165  0.17060356  0.58936277     0.46000
H1040       H  0.00232487  0.40655243  0.53948181     0.44800
H1041       H  0.01016127  0.33445917  0.41035688     0.44900
H1042       H  0.50807920  0.09615234  0.46062511     0.45200
O1043       O  0.80926395  0.35004199  0.43129051    -0.73600
O1044       O  0.84836556  0.30609785  0.46180085    -0.52500
C1045       C  0.83971619  0.33897990  0.43966472     0.80100
O1046       O  0.69561654  0.34985900  0.56871623    -0.58200
O1047       O  0.65653382  0.30632125  0.53785083    -0.51300
C1048       C  0.66517473  0.33895614  0.56018525     0.72100
O1049       O  0.80941386  0.35077791  0.56798727    -0.72800
O1050       O  0.84846017  0.30658866  0.53760004    -0.53300
C1051       C  0.83985205  0.33960352  0.55964325     0.78100
O1052       O  0.69565387  0.34924483  0.43056217    -0.57900
O1053       O  0.65659989  0.30583244  0.46157879    -0.51000
C1054       C  0.66521923  0.33839067  0.43916220     0.74700
Zr1055     Zr  0.75245661  0.32290985  0.44628230     2.54700
O1056       O  0.75218392  0.41015584  0.44312033    -0.78500
O1057       O  0.75194561  0.31508124  0.38169406    -0.91900
Zr1058     Zr  0.75254633  0.32421837  0.55272221     2.64700
O1059       O  0.75342478  0.41161268  0.55316996    -0.96900
O1060       O  0.75200013  0.32042551  0.61750552    -0.78900
O1061       O  0.78470354  0.32451947  0.49947198    -0.82300
O1062       O  0.72041250  0.32472607  0.49953057    -2.17000
O1063       O  0.69551835  0.15514847  0.43131405    -0.65700
O1064       O  0.65647138  0.19886580  0.46208289    -0.50200
C1065       C  0.66508874  0.16612156  0.43982693     0.73100
O1066       O  0.80926279  0.15458749  0.56834747    -0.58600
O1067       O  0.84834976  0.19896477  0.53813683    -0.50600
C1068       C  0.83971546  0.16588532  0.56011630     0.74900
O1069       O  0.69568708  0.15585955  0.56941309    -0.70000
O1070       O  0.65663882  0.19937075  0.53847145    -0.48700
C1071       C  0.66525883  0.16679070  0.56087079     0.76300
O1072       O  0.80927624  0.15381651  0.43207626    -0.65300
O1073       O  0.84833949  0.19829769  0.46222974    -0.52500
C1074       C  0.83972040  0.16515357  0.44029549     0.74700
Zr1075     Zr  0.75248410  0.18071439  0.44725359     2.77500
O1076       O  0.75266427  0.09328663  0.44666326    -0.96100
O1077       O  0.75310509  0.18541407  0.38253511    -0.76900
Zr1078     Zr  0.75249125  0.18207515  0.55361742     2.70100
O1079       O  0.75167516  0.09487464  0.55736915    -0.78100
O1080       O  0.75306603  0.19107892  0.61809441    -0.97200
Zr1081     Zr  0.81678659  0.25247298  0.49993853     2.21500
Zr1082     Zr  0.68821438  0.25256684  0.49997002     2.11100
O1083       O  0.72037973  0.18040714  0.50043085    -2.45900
O1084       O  0.78473574  0.18037166  0.50043507    -0.77900
O1085       O  0.71949020  0.25180989  0.44585531    -0.70100
O1086       O  0.78540824  0.25309563  0.55404913    -2.31100
O1087       O  0.78534336  0.25182219  0.44587330    -2.27300
O1088       O  0.71952576  0.25315328  0.55406080    -0.71900
H1089       H  0.70604591  0.35268231  0.49938818     0.80100
H1090       H  0.80017234  0.25319953  0.57448233     0.81200
H1091       H  0.70597514  0.15248383  0.50059481     0.83400
H1092       H  0.80008527  0.25154999  0.42542534     0.81000
H1093       H  0.77202122  0.30109589  0.62390270     0.44100
H1094       H  0.73321893  0.21134031  0.62346299     0.43100
H1095       H  0.75358000  0.08401440  0.53235678     0.42700
H1096       H  0.73429113  0.08382894  0.46304231     0.40700
H1097       H  0.73689858  0.21124505  0.37670340     0.43800
H1098       H  0.77425459  0.30157097  0.37553135     0.38600
H1099       H  0.75911314  0.42065539  0.46721062     0.44700
H1100       H  0.73529793  0.42127246  0.53655647     0.41100
H1101       H  0.74433010  0.08447001  0.42269604     0.46000
H1102       H  0.75273745  0.34852122  0.37281506     0.44800
H1103       H  0.74490071  0.42061467  0.57702322     0.44900
H1104       H  0.74698211  0.15892164  0.62729189     0.45200
C1105       C  0.61630977  0.11543697  0.41049178    -0.11600
C1106       C  0.63858086  0.13886425  0.42363663    -0.13200
C1107       C  0.63875208  0.13963665  0.57715838    -0.11600
C1108       C  0.61648098  0.11620930  0.59030317    -0.13200
C1109       C  0.63870043  0.36556952  0.42291450    -0.11600
C1110       C  0.61639104  0.38892450  0.40977489    -0.13200
C1111       C  0.88876529  0.11590252  0.41004738    -0.11600
C1112       C  0.86630737  0.13842545  0.42371973    -0.13200
C1113       C  0.88880297  0.38923428  0.58976631    -0.11600
C1114       C  0.86642246  0.36646535  0.57615598    -0.13200
C1115       C  0.88875450  0.11664824  0.59038638    -0.11600
C1116       C  0.86629652  0.13917116  0.57671414    -0.13200
C1117       C  0.63867082  0.36614898  0.57644163    -0.11600
C1118       C  0.61636148  0.38950407  0.58958123    -0.13200
C1119       C  0.86625891  0.36583926  0.42309973    -0.11600
C1120       C  0.88863937  0.38860825  0.40948935    -0.13200
O1121       O  0.94579796  0.40503138  0.93129054    -0.73600
O1122       O  0.90669636  0.44897554  0.96180091    -0.52500
C1123       C  0.91534572  0.41609352  0.93966476     0.80100
O1124       O  0.55944530  0.40521462  0.73538294    -0.58200
O1125       O  0.59852801  0.44875207  0.70451731    -0.51300
C1126       C  0.58988710  0.41611731  0.72685183     0.72100
O1127       O  0.94564798  0.40429582  0.73465397    -0.72800
O1128       O  0.90660163  0.44848503  0.70426677    -0.53300
C1129       C  0.91520977  0.41547016  0.72630996     0.78100
O1130       O  0.55940804  0.40582861  0.93056230    -0.57900
O1131       O  0.59846198  0.44924119  0.96157883    -0.51000
C1132       C  0.58984267  0.41668289  0.93916227     0.74700
Zr1133     Zr  0.00260527  0.43216375  0.94628233     2.54700
O1134       O  0.00287803  0.34491779  0.94312041    -0.78500
O1135       O  0.50311631  0.43999243  0.88169411    -0.91900
Zr1136     Zr  0.00251554  0.43085534  0.71938888     2.64700
O1137       O  0.00163695  0.34346101  0.71983700    -0.96900
O1138       O  0.50306154  0.43464850  0.78417220    -0.78900
O1139       O  0.97035833  0.43055416  0.99947198    -0.82300
O1140       O  0.53464931  0.43034762  0.99953063    -2.17000
O1141       O  0.55954349  0.09992521  0.93131399    -0.65700
O1142       O  0.59859040  0.05620766  0.96208275    -0.50200
C1143       C  0.58997309  0.08895200  0.93982682     0.73100
O1144       O  0.94579902  0.10048622  0.73501399    -0.58600
O1145       O  0.90671210  0.05610875  0.70480345    -0.50600
C1146       C  0.91534636  0.08918828  0.72678287     0.74900
O1147       O  0.55937476  0.09921420  0.73607962    -0.70000
O1148       O  0.59842304  0.05570299  0.70513801    -0.48700
C1149       C  0.58980302  0.08828303  0.72753737     0.76300
O1150       O  0.94578561  0.10125711  0.93207628    -0.65300
O1151       O  0.90672236  0.05677576  0.96222963    -0.52500
C1152       C  0.91534144  0.08992001  0.94029547     0.74700
Zr1153     Zr  0.50257775  0.07435921  0.94725360     2.77500
O1154       O  0.50239756  0.16178696  0.94666335    -0.96100
O1155       O  0.50195651  0.06965940  0.88253517    -0.76900
Zr1156     Zr  0.50257057  0.07299858  0.72028400     2.70100
O1157       O  0.50338669  0.16019915  0.72403591    -0.78100
O1158       O  0.50199583  0.06399490  0.78476095    -0.97200
Zr1159     Zr  0.93827529  0.00260052  0.66660515     2.21500
Zr1160     Zr  0.56684752  0.50250679  0.99997007     2.11100
O1161       O  0.53468210  0.07466633  0.66709751    -2.45900
O1162       O  0.97032608  0.07470190  0.66710166    -0.77900
O1163       O  0.53557170  0.50326374  0.94585538    -0.70100
O1164       O  0.96965359  0.00197808  0.72071580    -2.31100
O1165       O  0.96971856  0.00325133  0.94587333    -2.27300
O1166       O  0.53553614  0.50192044  0.72072753    -0.71900
H1167       H  0.54901583  0.40239129  0.66605476     0.80100
H1168       H  0.95488947  0.00187427  0.74114900     0.82000
H1169       H  0.54908667  0.10258939  0.00059472     0.83400
H1170       H  0.95497660  0.00352349  0.92542542     0.81000
H1171       H  0.98304034  0.45397781  0.79056934     0.44100
H1172       H  0.52184330  0.04373424  0.79012955     0.43100
H1173       H  0.00148113  0.17105951  0.69902361     0.42700
H1174       H  0.52077085  0.17124460  0.96304222     0.40700
H1175       H  0.51816276  0.04382808  0.87670348     0.43800
H1176       H  0.98080722  0.45350219  0.87553138     0.38600
H1177       H  0.99594873  0.33441827  0.96721068     0.44700
H1178       H  0.51976349  0.33380100  0.70322320     0.41100
H1179       H  0.51073154  0.17060352  0.92269607     0.46000
H1180       H  0.00232487  0.40655244  0.87281511     0.44800
H1181       H  0.01016138  0.33445921  0.74369012     0.44900
H1182       H  0.50807917  0.09615244  0.79395841     0.45200
O1183       O  0.80926397  0.35004202  0.76462397    -0.73600
O1184       O  0.84836561  0.30609791  0.79513428    -0.52500
C1185       C  0.83971621  0.33897991  0.77299814     0.80100
O1186       O  0.69561654  0.34985894  0.90204968    -0.58200
O1187       O  0.65653385  0.30632133  0.87118414    -0.51300
C1188       C  0.66517474  0.33895615  0.89351862     0.72100
O1189       O  0.80941387  0.35077785  0.90132074    -0.72800
O1190       O  0.84846015  0.30658873  0.87093335    -0.53300
C1191       C  0.83985205  0.33960353  0.89297662     0.78100
O1192       O  0.69565388  0.34924484  0.76389547    -0.57900
O1193       O  0.65659990  0.30583244  0.79491210    -0.51000
C1194       C  0.66521924  0.33839068  0.77249549     0.74700
Zr1195     Zr  0.75245661  0.32290986  0.77961562     2.54700
O1196       O  0.75218392  0.41015585  0.77645363    -0.78500
O1197       O  0.75194561  0.31508125  0.71502736    -0.91900
Zr1198     Zr  0.75254633  0.32421839  0.88605554     2.64700
O1199       O  0.75342478  0.41161269  0.88650326    -0.96900
O1200       O  0.75200013  0.32042553  0.95083884    -0.78900
O1201       O  0.78470354  0.32451947  0.83280529    -0.82300
O1202       O  0.72041250  0.32472608  0.83286389    -2.17000
O1203       O  0.69551837  0.15514849  0.76464736    -0.65700
O1204       O  0.65647139  0.19886582  0.79541619    -0.50200
C1205       C  0.66508875  0.16612158  0.77316023     0.73100
O1206       O  0.80926280  0.15458749  0.90168076    -0.58600
O1207       O  0.84834977  0.19896477  0.87147014    -0.50600
C1208       C  0.83971547  0.16588532  0.89344960     0.74900
O1209       O  0.69568709  0.15585955  0.90274639    -0.70000
O1210       O  0.65663881  0.19937071  0.87180476    -0.48700
C1211       C  0.66525883  0.16679064  0.89420408     0.76300
O1212       O  0.80927622  0.15381651  0.76540958    -0.65300
O1213       O  0.84833950  0.19829768  0.79556303    -0.52500
C1214       C  0.83972039  0.16515352  0.77362880     0.74700
Zr1215     Zr  0.75248411  0.18071439  0.78058698     2.77500
O1216       O  0.75266427  0.09328664  0.77999656    -0.96100
O1217       O  0.75310532  0.18541443  0.71586852    -0.76900
Zr1218     Zr  0.75249126  0.18207517  0.88695073     2.70100
O1219       O  0.75167516  0.09487465  0.89070245    -0.78100
O1220       O  0.75306626  0.19107890  0.95142770    -0.97200
Zr1221     Zr  0.81678660  0.25247299  0.83327183     2.21500
Zr1222     Zr  0.68821437  0.25256685  0.83330339     2.11100
O1223       O  0.72037971  0.18040715  0.83376421    -2.45900
O1224       O  0.78473577  0.18037166  0.83376842    -0.77900
O1225       O  0.71949024  0.25180989  0.77918875    -0.70100
O1226       O  0.78540821  0.25309564  0.88738237    -2.31100
O1227       O  0.78534336  0.25182219  0.77920662    -2.27300
O1228       O  0.71952573  0.25315330  0.88739422    -0.71900
H1229       H  0.70604591  0.35268232  0.83272147     0.80100
H1230       H  0.80017222  0.25319954  0.90781544     0.81200
H1231       H  0.70597513  0.15248383  0.83392814     0.83400
H1232       H  0.80008526  0.25154996  0.75875864     0.81000
H1233       H  0.77202121  0.30109593  0.95723603     0.44100
H1234       H  0.73321921  0.21134037  0.95679632     0.43100
H1235       H  0.75358001  0.08401441  0.86569007     0.42700
H1236       H  0.73429114  0.08382889  0.79637559     0.40700
H1237       H  0.73689857  0.21124509  0.71003677     0.43800
H1238       H  0.77425460  0.30157098  0.70886465     0.38600
H1239       H  0.75911315  0.42065540  0.80054391     0.44700
H1240       H  0.73529793  0.42127246  0.86988977     0.41100
H1241       H  0.74433009  0.08447010  0.75602933     0.46000
H1242       H  0.75273746  0.34852122  0.70614836     0.44800
H1243       H  0.74490072  0.42061469  0.91035651     0.44900
H1244       H  0.74698229  0.15892158  0.96062520     0.45200
C1245       C  0.61630975  0.11543698  0.74382508    -0.11600
C1246       C  0.63858087  0.13886426  0.75696992    -0.13200
C1247       C  0.63875211  0.13963651  0.91049165    -0.11600
C1248       C  0.61648100  0.11620920  0.92363648    -0.13200
C1249       C  0.63870044  0.36556953  0.75624779    -0.11600
C1250       C  0.61639105  0.38892451  0.74310818    -0.13200
C1251       C  0.88876529  0.11590245  0.74338073    -0.11600
C1252       C  0.86630733  0.13842533  0.75705307    -0.13200
C1253       C  0.88880296  0.38923426  0.92309973    -0.11600
C1254       C  0.86642247  0.36646535  0.90948934    -0.13200
C1255       C  0.88875448  0.11664828  0.92371980    -0.11600
C1256       C  0.86629652  0.13917118  0.91004749    -0.13200
C1257       C  0.63867081  0.36614900  0.90977493    -0.11600
C1258       C  0.61636149  0.38950410  0.92291456    -0.13200
C1259       C  0.86625891  0.36583923  0.75643307    -0.11600
C1260       C  0.88863937  0.38860822  0.74282267    -0.13200
O1261       O  0.94579800  0.90503147  0.26462392    -0.73600
O1262       O  0.90669634  0.94897557  0.29513423    -0.52500
C1263       C  0.91534575  0.91609357  0.27299808     0.80100
O1264       O  0.55944534  0.90521454  0.06871630    -0.58200
O1265       O  0.59852804  0.94875216  0.03785078    -0.51300
C1266       C  0.58988713  0.91611733  0.06018524     0.72100
O1267       O  0.94564794  0.90429569  0.06798739    -0.72800
O1268       O  0.90660167  0.94848482  0.03759999    -0.53300
C1269       C  0.91520974  0.91547007  0.05964329     0.78100
O1270       O  0.55940805  0.90582873  0.26389549    -0.57900
O1271       O  0.59846201  0.94924114  0.29491213    -0.51000
C1272       C  0.58984267  0.91668288  0.27249553     0.74700
Zr1273     Zr  0.00260532  0.93216364  0.27961569     2.54700
O1274       O  0.00287808  0.84491764  0.27645383    -0.78500
O1275       O  0.50311636  0.93999223  0.21502749    -0.91900
Zr1276     Zr  0.00251552  0.93085526  0.05272228     2.64700
O1277       O  0.00163696  0.84346100  0.05317041    -0.96900
O1278       O  0.50306159  0.93464831  0.11750561    -0.78900
O1279       O  0.97035833  0.93055399  0.33280529    -0.82300
O1280       O  0.53464936  0.93034742  0.33286394    -2.17000
O1281       O  0.55954348  0.59992515  0.26464735    -0.65700
O1282       O  0.59859045  0.55620782  0.29541619    -0.50200
C1283       C  0.58997309  0.58895208  0.27316022     0.73100
O1284       O  0.94579908  0.60048614  0.06834739    -0.58600
O1285       O  0.90671208  0.55610888  0.03813678    -0.50600
C1286       C  0.91534640  0.58918833  0.06011624     0.74900
O1287       O  0.55937481  0.59921410  0.06941302    -0.70000
O1288       O  0.59842312  0.55570294  0.03847142    -0.48700
C1289       C  0.58980308  0.58828302  0.06087072     0.76300
O1290       O  0.94578565  0.60125708  0.26540955    -0.65300
O1291       O  0.90672238  0.55677575  0.29556290    -0.52500
C1292       C  0.91534148  0.58991995  0.27362872     0.74700
Zr1293     Zr  0.50257776  0.57435919  0.28058694     2.77500
O1294       O  0.50239760  0.66178685  0.27999675    -0.96100
O1295       O  0.50195657  0.56965921  0.21586846    -0.76900
Zr1296     Zr  0.50257060  0.57299850  0.05361736     2.70100
O1297       O  0.50338674  0.66019901  0.05736907    -0.78100
O1298       O  0.50199565  0.56399509  0.11809434    -0.97200
Zr1299     Zr  0.93827525  0.50260060  0.99993852     2.21500
Zr1300     Zr  0.56684749  0.00250666  0.33330342     2.11100
O1301       O  0.53468217  0.57466649  0.00043083    -2.45900
O1302       O  0.97032611  0.57470195  0.00043504    -0.77900
O1303       O  0.53557163  0.00326367  0.27918877    -0.70100
O1304       O  0.96965368  0.50197803  0.05404904    -2.31100
O1305       O  0.96971854  0.50325140  0.27920670    -2.27300
O1306       O  0.53553613  0.00192036  0.05406090    -0.71900
H1307       H  0.54901589  0.90239116  0.99938825     0.80100
H1308       H  0.95488967  0.50187413  0.07448211     0.82000
H1309       H  0.54908676  0.60258981  0.33392824     0.83400
H1310       H  0.95497664  0.50352363  0.25875874     0.81000
H1311       H  0.98304038  0.95397798  0.12390271     0.44100
H1312       H  0.52184284  0.54373399  0.12346301     0.43100
H1313       H  0.00148143  0.67105923  0.03235671     0.42700
H1314       H  0.52077089  0.67124447  0.29637564     0.40700
H1315       H  0.51816267  0.54382770  0.21003673     0.43800
H1316       H  0.98080733  0.95350214  0.20886477     0.38600
H1317       H  0.99594878  0.83441813  0.30054411     0.44700
H1318       H  0.51976348  0.83380110  0.03655659     0.41100
H1319       H  0.51073157  0.67060342  0.25602946     0.46000
H1320       H  0.00232480  0.90655221  0.20614850     0.44800
H1321       H  0.01016137  0.83445922  0.07702358     0.44900
H1322       H  0.50807935  0.59615258  0.12729175     0.45200
O1323       O  0.80926393  0.85004209  0.09795719    -0.73600
O1324       O  0.84836554  0.80609794  0.12846754    -0.52500
C1325       C  0.83971617  0.83897993  0.10633139     0.80100
O1326       O  0.69561659  0.84985895  0.23538296    -0.58200
O1327       O  0.65653384  0.80632137  0.20451747    -0.51300
C1328       C  0.66517478  0.83895615  0.22685195     0.72100
O1329       O  0.80941391  0.85077805  0.23465394    -0.72800
O1330       O  0.84846015  0.80658874  0.20426667    -0.53300
C1331       C  0.83985209  0.83960361  0.22630989     0.78100
O1332       O  0.69565375  0.84924482  0.09722878    -0.57900
O1333       O  0.65659980  0.80583223  0.12824531    -0.51000
C1334       C  0.66521913  0.83839055  0.10582878     0.74700
Zr1335     Zr  0.75245654  0.82290986  0.11294891     2.54700
O1336       O  0.75218372  0.91015580  0.10978678    -0.78500
O1337       O  0.75194562  0.81508140  0.04836070    -0.91900
Zr1338     Zr  0.75254637  0.82421844  0.21938878     2.64700
O1339       O  0.75342484  0.91161266  0.21983668    -0.96900
O1340       O  0.75200019  0.82042569  0.28417211    -0.78900
O1341       O  0.78470356  0.82451967  0.16613852    -0.82300
O1342       O  0.72041243  0.82472612  0.16619716    -2.17000
O1343       O  0.69551835  0.65514835  0.09798074    -0.65700
O1344       O  0.65647141  0.69886571  0.12874960    -0.50200
C1345       C  0.66508876  0.66612150  0.10649361     0.73100
O1346       O  0.80926279  0.65458741  0.23501392    -0.58600
O1347       O  0.84834979  0.69896496  0.20480357    -0.50600
C1348       C  0.83971548  0.66588536  0.22678292     0.74900
O1349       O  0.69568711  0.65585947  0.23607974    -0.70000
O1350       O  0.65663884  0.69937081  0.20513824    -0.48700
C1351       C  0.66525885  0.66679068  0.22753751     0.76300
O1352       O  0.80927625  0.65381660  0.09874292    -0.65300
O1353       O  0.84833951  0.69829777  0.12889640    -0.52500
C1354       C  0.83972042  0.66515363  0.10696217     0.74700
Zr1355     Zr  0.75248407  0.68071436  0.11392026     2.77500
O1356       O  0.75266433  0.59328665  0.11332996    -0.96100
O1357       O  0.75310514  0.68541424  0.04920181    -0.76900
Zr1358     Zr  0.75249123  0.68207520  0.22028406     2.70100
O1359       O  0.75167521  0.59487464  0.22403609    -0.78100
O1360       O  0.75306608  0.69107876  0.28476104    -0.97200
Zr1361     Zr  0.81678654  0.75247307  0.16660519     2.21500
Zr1362     Zr  0.68821431  0.75256687  0.16663669     2.11100
O1363       O  0.72037972  0.68040726  0.16709751    -2.45900
O1364       O  0.78473563  0.68037179  0.16710171    -0.77900
O1365       O  0.71949017  0.75180984  0.11252203    -0.70100
O1366       O  0.78540824  0.75309570  0.22071582    -2.31100
O1367       O  0.78534328  0.75182217  0.11253997    -2.27300
O1368       O  0.71952575  0.75315336  0.22072744    -0.71900
H1369       H  0.70604588  0.85268241  0.16605471     0.80100
H1370       H  0.80017234  0.75319965  0.24114902     0.81200
H1371       H  0.70597524  0.65248412  0.16726152     0.83400
H1372       H  0.80008525  0.75154988  0.09209206     0.81000
H1373       H  0.77202126  0.80109608  0.29056936     0.44100
H1374       H  0.73321907  0.71134016  0.29012969     0.43100
H1375       H  0.75357928  0.58401413  0.19902372     0.42700
H1376       H  0.73429114  0.58382894  0.12970895     0.40700
H1377       H  0.73689850  0.71124505  0.04337012     0.43800
H1378       H  0.77425457  0.80157117  0.04219809     0.38600
H1379       H  0.75911318  0.92065537  0.13387699     0.44700
H1380       H  0.73529812  0.92127239  0.20322314     0.41100
H1381       H  0.74433026  0.58447010  0.08936271     0.46000
H1382       H  0.75273749  0.84852145  0.03948171     0.44800
H1383       H  0.74490058  0.92061453  0.24368995     0.44900
H1384       H  0.74698214  0.65892145  0.29395849     0.45200
C1385       C  0.61630979  0.61543712  0.07715833    -0.11600
C1386       C  0.63858087  0.63886436  0.09030322    -0.13200
C1387       C  0.63875211  0.63963663  0.24382509    -0.11600
C1388       C  0.61648097  0.61620937  0.25696989    -0.13200
C1389       C  0.63870035  0.86556940  0.08958115    -0.11600
C1390       C  0.61639105  0.88892450  0.07644154    -0.13200
C1391       C  0.88876534  0.61590248  0.07671413    -0.11600
C1392       C  0.86630739  0.63842538  0.09038645    -0.13200
C1393       C  0.88880305  0.88923426  0.25643300    -0.11600
C1394       C  0.86642256  0.86646535  0.24282261    -0.13200
C1395       C  0.88875450  0.61664813  0.25705303    -0.11600
C1396       C  0.86629653  0.63917111  0.24338080    -0.13200
C1397       C  0.63867085  0.86614891  0.24310837    -0.11600
C1398       C  0.61636146  0.88950394  0.25624793    -0.13200
C1399       C  0.86625889  0.86583925  0.08976638    -0.11600
C1400       C  0.88863932  0.88860830  0.07615603    -0.13200
O1401       O  0.94579800  0.90503148  0.59795722    -0.73600
O1402       O  0.90669634  0.94897558  0.62846753    -0.52500
C1403       C  0.91534575  0.91609358  0.60633138     0.80100
O1404       O  0.55944535  0.90521454  0.40204960    -0.58200
O1405       O  0.59852806  0.94875215  0.37118409    -0.51300
C1406       C  0.58988715  0.91611732  0.39351854     0.72100
O1407       O  0.94564786  0.90429569  0.40132069    -0.72800
O1408       O  0.90660162  0.94848484  0.37093327    -0.53300
C1409       C  0.91520969  0.91547008  0.39297658     0.78100
O1410       O  0.55940806  0.90582873  0.59722895    -0.57900
O1411       O  0.59846205  0.94924111  0.62824557    -0.51000
C1412       C  0.58984269  0.91668288  0.60582896     0.74700
Zr1413     Zr  0.00260533  0.93216366  0.61294898     2.54700
O1414       O  0.00287808  0.84491767  0.60978688    -0.78500
O1415       O  0.50311639  0.93999223  0.54836079    -0.91900
Zr1416     Zr  0.00251544  0.93085527  0.38605560     2.64700
O1417       O  0.00163697  0.84346100  0.38650370    -0.96900
O1418       O  0.50306160  0.93464865  0.45083891    -0.78900
O1419       O  0.97035833  0.93055399  0.66613859    -0.82300
O1420       O  0.53464936  0.93034744  0.66619724    -2.17000
O1421       O  0.55954349  0.59992517  0.59798065    -0.65700
O1422       O  0.59859046  0.55620783  0.62874948    -0.50200
C1423       C  0.58997309  0.58895210  0.60649351     0.73100
O1424       O  0.94579907  0.60048616  0.40168069    -0.58600
O1425       O  0.90671209  0.55610889  0.37147007    -0.50600
C1426       C  0.91534640  0.58918834  0.39344953     0.74900
O1427       O  0.55937476  0.59921409  0.40274632    -0.70000
O1428       O  0.59842313  0.55570299  0.37180476    -0.48700
C1429       C  0.58980304  0.58828303  0.39420407     0.76300
O1430       O  0.94578565  0.60125715  0.59874301    -0.65300
O1431       O  0.90672235  0.55677570  0.62889620    -0.52500
C1432       C  0.91534147  0.58991996  0.60696208     0.74700
Zr1433     Zr  0.50257776  0.57435919  0.61392026     2.77500
O1434       O  0.50239738  0.66178684  0.61333005    -0.96100
O1435       O  0.50195657  0.56965922  0.54920176    -0.76900
Zr1436     Zr  0.50257057  0.57299849  0.38695069     2.70100
O1437       O  0.50338650  0.66019902  0.39070237    -0.78100
O1438       O  0.50199564  0.56399510  0.45142766    -0.97200
Zr1439     Zr  0.93827525  0.50260059  0.33327185     2.21500
Zr1440     Zr  0.56684749  0.00250670  0.66663673     2.11100
O1441       O  0.53468218  0.57466649  0.33376421    -2.45900
O1442       O  0.97032610  0.57470195  0.33376837    -0.77900
O1443       O  0.53557164  0.00326368  0.61252207    -0.70100
O1444       O  0.96965361  0.50197803  0.38738248    -2.31100
O1445       O  0.96971855  0.50325141  0.61254000    -2.27300
O1446       O  0.53553611  0.00192036  0.38739423    -0.71900
H1447       H  0.54901590  0.90239113  0.33272147     0.80100
H1448       H  0.95488954  0.50187413  0.40781572     0.82000
H1449       H  0.54908687  0.60259000  0.66726154     0.83400
H1450       H  0.95497664  0.50352364  0.59209204     0.81000
H1451       H  0.98304039  0.95397798  0.45723606     0.44100
H1452       H  0.52184289  0.54373416  0.45679633     0.43100
H1453       H  0.00148116  0.67105925  0.36569003     0.42700
H1454       H  0.52077058  0.67124455  0.62970905     0.40700
H1455       H  0.51816281  0.54382790  0.54337002     0.43800
H1456       H  0.98080740  0.95350215  0.54219809     0.38600
H1457       H  0.99594886  0.83441805  0.63387714     0.44700
H1458       H  0.51976361  0.83380107  0.36989000     0.41100
H1459       H  0.51073144  0.67060343  0.58936280     0.46000
H1460       H  0.00232482  0.90655219  0.53948177     0.44800
H1461       H  0.01016133  0.83445926  0.41035687     0.44900
H1462       H  0.50807923  0.59615264  0.46062507     0.45200
O1463       O  0.80926393  0.85004210  0.43129055    -0.73600
O1464       O  0.84836555  0.80609795  0.46180089    -0.52500
C1465       C  0.83971617  0.83897997  0.43966475     0.80100
O1466       O  0.69561658  0.84985890  0.56871643    -0.58200
O1467       O  0.65653389  0.80632143  0.53785078    -0.51300
C1468       C  0.66517478  0.83895616  0.56018532     0.72100
O1469       O  0.80941393  0.85077806  0.56798726    -0.72800
O1470       O  0.84846016  0.80658875  0.53759997    -0.53300
C1471       C  0.83985210  0.83960362  0.55964319     0.78100
O1472       O  0.69565374  0.84924485  0.43056225    -0.57900
O1473       O  0.65659976  0.80583229  0.46157875    -0.51000
C1474       C  0.66521911  0.83839057  0.43916220     0.74700
Zr1475     Zr  0.75245654  0.82290987  0.44628226     2.54700
O1476       O  0.75218373  0.91015580  0.44312008    -0.78500
O1477       O  0.75194562  0.81508142  0.38169402    -0.91900
Zr1478     Zr  0.75254637  0.82421844  0.55272219     2.64700
O1479       O  0.75342484  0.91161267  0.55316996    -0.96900
O1480       O  0.75200020  0.82042569  0.61750551    -0.78900
O1481       O  0.78470353  0.82451967  0.49947189    -0.82300
O1482       O  0.72041246  0.82472612  0.49953058    -2.17000
O1483       O  0.69551835  0.65514835  0.43131403    -0.65700
O1484       O  0.65647142  0.69886573  0.46208289    -0.50200
C1485       C  0.66508875  0.66612151  0.43982690     0.73100
O1486       O  0.80926281  0.65458741  0.56834724    -0.58600
O1487       O  0.84834979  0.69896497  0.53813687    -0.50600
C1488       C  0.83971550  0.66588536  0.56011622     0.74900
O1489       O  0.69568709  0.65585967  0.56941311    -0.70000
O1490       O  0.65663880  0.69937083  0.53847150    -0.48700
C1491       C  0.66525884  0.66679078  0.56087081     0.76300
O1492       O  0.80927626  0.65381660  0.43207627    -0.65300
O1493       O  0.84833952  0.69829778  0.46222974    -0.52500
C1494       C  0.83972043  0.66515361  0.44029552     0.74700
Zr1495     Zr  0.75248407  0.68071437  0.44725357     2.77500
O1496       O  0.75266434  0.59328665  0.44666325    -0.96100
O1497       O  0.75310514  0.68541425  0.38253511    -0.76900
Zr1498     Zr  0.75249124  0.68207522  0.55361744     2.70100
O1499       O  0.75167521  0.59487464  0.55736939    -0.78100
O1500       O  0.75306610  0.69107877  0.61809443    -0.97200
Zr1501     Zr  0.81678653  0.75247308  0.49993850     2.21500
Zr1502     Zr  0.68821434  0.75256687  0.49997002     2.11100
O1503       O  0.72037976  0.68040728  0.50043086    -2.45900
O1504       O  0.78473561  0.68037182  0.50043507    -0.77900
O1505       O  0.71949017  0.75180986  0.44585533    -0.70100
O1506       O  0.78540825  0.75309571  0.55404916    -2.31100
O1507       O  0.78534329  0.75182218  0.44587327    -2.27300
O1508       O  0.71952575  0.75315337  0.55406077    -0.71900
H1509       H  0.70604590  0.85268240  0.49938822     0.80100
H1510       H  0.80017239  0.75319965  0.57448232     0.81200
H1511       H  0.70597527  0.65248415  0.50059485     0.83400
H1512       H  0.80008525  0.75154990  0.42542536     0.81000
H1513       H  0.77202128  0.80109608  0.62390271     0.44100
H1514       H  0.73321908  0.71134015  0.62346306     0.43100
H1515       H  0.75357956  0.58401420  0.53235703     0.42700
H1516       H  0.73429121  0.58382894  0.46304229     0.40700
H1517       H  0.73689838  0.71124491  0.37670340     0.43800
H1518       H  0.77425456  0.80157118  0.37553140     0.38600
H1519       H  0.75911311  0.92065537  0.46721029     0.44700
H1520       H  0.73529796  0.92127237  0.53655648     0.41100
H1521       H  0.74433015  0.58447007  0.42269601     0.46000
H1522       H  0.75273750  0.84852146  0.37281501     0.44800
H1523       H  0.74490075  0.92061457  0.57702322     0.44900
H1524       H  0.74698215  0.65892143  0.62729185     0.45200
C1525       C  0.61630971  0.61543713  0.41049176    -0.11600
C1526       C  0.63858084  0.63886436  0.42363658    -0.13200
C1527       C  0.63875212  0.63963666  0.57715838    -0.11600
C1528       C  0.61648099  0.61620938  0.59030318    -0.13200
C1529       C  0.63870035  0.86556938  0.42291448    -0.11600
C1530       C  0.61639106  0.88892449  0.40977484    -0.13200
C1531       C  0.88876534  0.61590249  0.41004743    -0.11600
C1532       C  0.86630740  0.63842538  0.42371980    -0.13200
C1533       C  0.88880306  0.88923427  0.58976630    -0.11600
C1534       C  0.86642257  0.86646536  0.57615590    -0.13200
C1535       C  0.88875451  0.61664814  0.59038634    -0.11600
C1536       C  0.86629655  0.63917112  0.57671409    -0.13200
C1537       C  0.63867082  0.86614894  0.57644167    -0.11600
C1538       C  0.61636146  0.88950398  0.58958126    -0.13200
C1539       C  0.86625888  0.86583926  0.42309973    -0.11600
C1540       C  0.88863926  0.88860832  0.40948932    -0.13200
O1541       O  0.94579800  0.90503150  0.93129052    -0.73600
O1542       O  0.90669639  0.94897563  0.96180087    -0.52500
C1543       C  0.91534576  0.91609361  0.93966474     0.80100
O1544       O  0.55944536  0.90521456  0.73538290    -0.58200
O1545       O  0.59852806  0.94875217  0.70451739    -0.51300
C1546       C  0.58988715  0.91611733  0.72685184     0.72100
O1547       O  0.94564787  0.90429564  0.73465399    -0.72800
O1548       O  0.90660163  0.94848495  0.70426671    -0.53300
C1549       C  0.91520970  0.91547009  0.72630994     0.78100
O1550       O  0.55940807  0.90582874  0.93056225    -0.57900
O1551       O  0.59846205  0.94924111  0.96157887    -0.51000
C1552       C  0.58984270  0.91668289  0.93916226     0.74700
Zr1553     Zr  0.00260533  0.93216366  0.94628232     2.54700
O1554       O  0.00287808  0.84491766  0.94312042    -0.78500
O1555       O  0.50311639  0.93999224  0.88169410    -0.91900
Zr1556     Zr  0.00251545  0.93085528  0.71938889     2.64700
O1557       O  0.00163697  0.84346101  0.71983699    -0.96900
O1558       O  0.50306160  0.93464866  0.78417220    -0.78900
O1559       O  0.97035838  0.93055401  0.99947197    -0.82300
O1560       O  0.53464934  0.93034743  0.99953063    -2.17000
O1561       O  0.55954348  0.59992517  0.93131395    -0.65700
O1562       O  0.59859046  0.55620784  0.96208279    -0.50200
C1563       C  0.58997309  0.58895210  0.93982681     0.73100
O1564       O  0.94579909  0.60048616  0.73501403    -0.58600
O1565       O  0.90671210  0.55610889  0.70480341    -0.50600
C1566       C  0.91534641  0.58918832  0.72678288     0.74900
O1567       O  0.55937477  0.59921411  0.73607962    -0.70000
O1568       O  0.59842313  0.55570300  0.70513805    -0.48700
C1569       C  0.58980305  0.58828304  0.72753737     0.76300
O1570       O  0.94578565  0.60125716  0.93207632    -0.65300
O1571       O  0.90672239  0.55677568  0.96222954    -0.52500
C1572       C  0.91534148  0.58991997  0.94029544     0.74700
Zr1573     Zr  0.50257775  0.57435920  0.94725361     2.77500
O1574       O  0.50239761  0.66178687  0.94666334    -0.96100
O1575       O  0.50195657  0.56965923  0.88253517    -0.76900
Zr1576     Zr  0.50257058  0.57299849  0.72028399     2.70100
O1577       O  0.50338651  0.66019901  0.72403592    -0.78100
O1578       O  0.50199567  0.56399474  0.78476094    -0.97200
Zr1579     Zr  0.93827525  0.50260060  0.66660516     2.21500
Zr1580     Zr  0.56684748  0.00250666  0.99997006     2.11100
O1581       O  0.53468220  0.57466656  0.66709751    -2.45900
O1582       O  0.97032611  0.57470195  0.66710167    -0.77900
O1583       O  0.53557165  0.00326369  0.94585538    -0.70100
O1584       O  0.96965361  0.50197804  0.72071578    -2.31100
O1585       O  0.96971853  0.50325142  0.94587336    -2.27300
O1586       O  0.53553608  0.00192041  0.72072753    -0.71900
H1587       H  0.54901589  0.90239115  0.66605478     0.80100
H1588       H  0.95488955  0.50187414  0.74114902     0.82000
H1589       H  0.54908676  0.60258980  0.00059477     0.83400
H1590       H  0.95497662  0.50352365  0.92542540     0.81000
H1591       H  0.98304040  0.95397799  0.79056936     0.44100
H1592       H  0.52184305  0.54373391  0.79012959     0.43100
H1593       H  0.00148144  0.67105935  0.69902359     0.42700
H1594       H  0.52077089  0.67124450  0.96304223     0.40700
H1595       H  0.51816282  0.54382791  0.87670350     0.43800
H1596       H  0.98080741  0.95350215  0.87553139     0.38600
H1597       H  0.99594879  0.83441815  0.96721069     0.44700
H1598       H  0.51976357  0.83380109  0.70322319     0.41100
H1599       H  0.51073158  0.67060342  0.92269605     0.46000
H1600       H  0.00232483  0.90655220  0.87281508     0.44800
H1601       H  0.01016134  0.83445927  0.74369016     0.44900
H1602       H  0.50807909  0.59615223  0.79395841     0.45200
O1603       O  0.80926395  0.85004212  0.76462401    -0.73600
O1604       O  0.84836559  0.80609801  0.79513433    -0.52500
C1605       C  0.83971619  0.83897998  0.77299817     0.80100
O1606       O  0.69561658  0.84985891  0.90204973    -0.58200
O1607       O  0.65653388  0.80632145  0.87118408    -0.51300
C1608       C  0.66517479  0.83895618  0.89351862     0.72100
O1609       O  0.80941393  0.85077807  0.90132057    -0.72800
O1610       O  0.84846018  0.80658879  0.87093330    -0.53300
C1611       C  0.83985210  0.83960363  0.89297654     0.78100
O1612       O  0.69565375  0.84924485  0.76389554    -0.57900
O1613       O  0.65659978  0.80583229  0.79491206    -0.51000
C1614       C  0.66521912  0.83839058  0.77249550     0.74700
Zr1615     Zr  0.75245655  0.82290989  0.77961561     2.54700
O1616       O  0.75218373  0.91015583  0.77645362    -0.78500
O1617       O  0.75194563  0.81508144  0.71502733    -0.91900
Zr1618     Zr  0.75254637  0.82421839  0.88605553     2.64700
O1619       O  0.75342484  0.91161266  0.88650326    -0.96900
O1620       O  0.75200021  0.82042571  0.95083883    -0.78900
O1621       O  0.78470354  0.82451966  0.83280525    -0.82300
O1622       O  0.72041246  0.82472612  0.83286391    -2.17000
O1623       O  0.69551837  0.65514837  0.76464734    -0.65700
O1624       O  0.65647143  0.69886575  0.79541620    -0.50200
C1625       C  0.66508877  0.66612153  0.77316020     0.73100
O1626       O  0.80926283  0.65458745  0.90168070    -0.58600
O1627       O  0.84834978  0.69896491  0.87147018    -0.50600
C1628       C  0.83971550  0.66588536  0.89344959     0.74900
O1629       O  0.69568709  0.65585945  0.90274636    -0.70000
O1630       O  0.65663884  0.69937082  0.87180484    -0.48700
C1631       C  0.66525884  0.66679069  0.89420411     0.76300
O1632       O  0.80927624  0.65381642  0.76540964    -0.65300
O1633       O  0.84833948  0.69829778  0.79556300    -0.52500
C1634       C  0.83972042  0.66515355  0.77362882     0.74700
Zr1635     Zr  0.75248409  0.68071436  0.78058696     2.77500
O1636       O  0.75266434  0.59328665  0.77999656    -0.96100
O1637       O  0.75310514  0.68541427  0.71586851    -0.76900
Zr1638     Zr  0.75249124  0.68207508  0.88695076     2.70100
O1639       O  0.75167522  0.59487451  0.89070269    -0.78100
O1640       O  0.75306608  0.69107877  0.95142772    -0.97200
Zr1641     Zr  0.81678654  0.75247307  0.83327183     2.21500
Zr1642     Zr  0.68821434  0.75256688  0.83330339     2.11100
O1643       O  0.72037973  0.68040725  0.83376420    -2.45900
O1644       O  0.78473564  0.68037179  0.83376842    -0.77900
O1645       O  0.71949021  0.75180985  0.77918877    -0.70100
O1646       O  0.78540822  0.75309556  0.88738245    -2.31100
O1647       O  0.78534330  0.75182218  0.77920659    -2.27300
O1648       O  0.71952575  0.75315328  0.88739419    -0.71900
H1649       H  0.70604591  0.85268241  0.83272149     0.80100
H1650       H  0.80017237  0.75319939  0.90781561     0.81200
H1651       H  0.70597523  0.65248414  0.83392814     0.83400
H1652       H  0.80008524  0.75154986  0.75875865     0.81000
H1653       H  0.77202129  0.80109608  0.95723600     0.44100
H1654       H  0.73321905  0.71134032  0.95679632     0.43100
H1655       H  0.75357957  0.58401414  0.86569030     0.42700
H1656       H  0.73429122  0.58382890  0.79637559     0.40700
H1657       H  0.73689864  0.71124527  0.71003679     0.43800
H1658       H  0.77425457  0.80157120  0.70886470     0.38600
H1659       H  0.75911319  0.92065530  0.80054385     0.44700
H1660       H  0.73529797  0.92127237  0.86988978     0.41100
H1661       H  0.74433015  0.58447016  0.75602930     0.46000
H1662       H  0.75273750  0.84852147  0.70614831     0.44800
H1663       H  0.74490075  0.92061459  0.91035652     0.44900
H1664       H  0.74698206  0.65892152  0.96062518     0.45200
C1665       C  0.61630971  0.61543714  0.74382506    -0.11600
C1666       C  0.63858085  0.63886437  0.75696987    -0.13200
C1667       C  0.63875210  0.63963666  0.91049168    -0.11600
C1668       C  0.61648098  0.61620938  0.92363648    -0.13200
C1669       C  0.63870036  0.86556939  0.75624777    -0.11600
C1670       C  0.61639107  0.88892449  0.74310814    -0.13200
C1671       C  0.88876536  0.61590249  0.74338077    -0.11600
C1672       C  0.86630740  0.63842539  0.75705309    -0.13200
C1673       C  0.88880303  0.88923422  0.92309977    -0.11600
C1674       C  0.86642255  0.86646531  0.90948937    -0.13200
C1675       C  0.88875451  0.61664818  0.92371976    -0.11600
C1676       C  0.86629657  0.63917114  0.91004745    -0.13200
C1677       C  0.63867083  0.86614895  0.90977497    -0.11600
C1678       C  0.61636146  0.88950399  0.92291456    -0.13200
C1679       C  0.86625888  0.86583923  0.75643307    -0.11600
C1680       C  0.88863926  0.88860829  0.74282264    -0.13200
loop_ 
_geom_bond_atom_site_label_1 
_geom_bond_atom_site_label_2 
_geom_bond_distance 
_geom_bond_site_symmetry_2 
_ccdc_geom_bond_type 
O1          Zr13   2.445       .  S
O1            C3   1.287       .  A
O2         Zr599   2.420       .  S
O2            C3   1.284       .  A
C3          C133   1.434       .  S
O4         Zr856   2.446       .  S
O4            C6   1.287       .  A
O5         Zr320   2.419   1_554  S
O5            C6   1.284       .  A
C6          C130   1.433       .  S
O7          Zr16   2.444       .  S
O7            C9   1.287       .  A
O8         Zr459   2.420   1_554  S
O8            C9   1.284       .  A
C9          C140   1.434       .  S
O10        Zr853   2.444       .  S
O10          C12   1.287       .  A
O11         Zr40   2.421       .  S
O11          C12   1.284       .  A
C12         C138   1.434       .  S
Zr13        O850   2.444       .  S
Zr13         O14   2.434       .  S
Zr13        O855   2.436       .  S
Zr13         O19   2.374       .  S
Zr13        O860   2.371       .  S
Zr13        O883   2.374       .  S
Zr13        O465   2.373       .  S
O14          H57   0.990       .  S
O15        Zr853   2.436       .  S
O15         H896   0.990   1_455  S
O15         H900   0.990       .  S
Zr16        O844   2.446       .  S
Zr16         O17   2.435       .  S
Zr16        O858   2.436       .  S
Zr16       O1140   2.371   1_554  S
Zr16        O299   2.373   1_554  S
Zr16        O464   2.373       .  S
Zr16        O886   2.375       .  S
O17          H61   0.990       .  S
O17         H898   0.990       .  S
O18        Zr856   2.436       .  S
O18         H891   0.990   1_455  S
O19        Zr156   2.373       .  S
O19        Zr599   2.378       .  S
O20         Zr40   2.382       .  S
O20        Zr853   2.371       .  S
O20        Zr996   2.371       .  S
O20         H187   0.966       .  S
O21         Zr33   2.446       .  S
O21          C23   1.287       .  A
O22        Zr460   2.419       .  S
O22          C23   1.284       .  A
C23         C128   1.433       .  S
O24        Zr876   2.444       .  S
O24          C26   1.287       .  A
O25         Zr39   2.419   1_554  S
O25          C26   1.284       .  A
C26         C131   1.434       .  S
O27         Zr36   2.444       .  S
O27          C29   1.287       .  A
O28        Zr740   2.421   1_554  S
O28          C29   1.284       .  A
C29         C125   1.433       .  S
O30        Zr873   2.444       .  S
O30          C32   1.287       .  A
O31        Zr179   2.420       .  S
O31          C32   1.284       .  A
C32         C135   1.434       .  S
Zr33        O870   2.444   1_455  S
Zr33         O34   2.436       .  S
Zr33         O35   2.435       .  S
Zr33        O181   2.370       .  S
Zr33       O1022   2.373   1_455  S
Zr33        O885   2.373   1_455  S
Zr33        O463   2.376       .  S
O34          H54   0.990       .  S
O34          H59   0.990       .  S
O35          H55   0.990       .  S
Zr36        O864   2.444   1_455  S
Zr36         O37   2.434       .  S
Zr36         O38   2.435       .  S
Zr36         O41   2.371       .  S
Zr36        O882   2.374   1_455  S
Zr36        O466   2.374       .  S
Zr36        O884   2.371   1_455  S
O37         H893   0.990       .  S
O38          H52   0.990       .  S
O38          H62   0.990       .  S
Zr39        O702   2.420   1_545  S
Zr39        O428   2.420   1_546  S
Zr39        O311   2.420       .  S
Zr39         O42   2.378   1_556  S
Zr39         O44   2.384   1_556  S
Zr39        O719   2.378   1_545  S
Zr39        O325   2.384       .  S
Zr40        O145   2.419       .  S
Zr40        O442   2.419       .  S
Zr40        O588   2.421       .  S
Zr40         O43   2.382       .  S
Zr40        O601   2.382       .  S
Zr40        O186   2.382       .  S
O41        Zr313   2.370   1_554  S
O41        Zr740   2.382   1_554  S
O41         H329   0.966       .  S
O42       Zr1153   2.373   1_554  S
O42        Zr876   2.374       .  S
O43        Zr853   2.374       .  S
O43        Zr453   2.376       .  S
O44        Zr436   2.373   1_545  S
O44        Zr876   2.371       .  S
O44          H48   0.966       .  S
O45        Zr433   2.373   1_545  S
O45        Zr873   2.373       .  S
O45        Zr179   2.384       .  S
O45          H50   0.966       .  S
O46        Zr856   2.375       .  S
O46        Zr456   2.374       .  S
O46        Zr320   2.382   1_554  S
H47         O300   0.966       .  S
H49         O181   0.966       .  S
H51         O858   0.990       .  S
H53         O877   0.990       .  S
H56         O855   0.990       .  S
H58         O857   0.990       .  S
H60         O855   0.990       .  S
O63         Zr75   2.445       .  S
O63          C65   1.287       .  A
O64        Zr101   2.420       .  S
O64          C65   1.284       .  A
C65         C139   1.434       .  S
O66         Zr78   2.446       .  S
O66          C68   1.287       .  A
O67        Zr102   2.419       .  S
O67          C68   1.284       .  A
C68         C137   1.433       .  S
O69         Zr78   2.444       .  S
O69          C71   1.287       .  A
O70        Zr101   2.420       .  S
O70          C71   1.284       .  A
C71         C134   1.434       .  S
O72         Zr75   2.444       .  S
O72          C74   1.287       .  A
O73        Zr102   2.421       .  S
O73          C74   1.284       .  A
C74         C129   1.434       .  S
Zr75         O76   2.434       .  S
Zr75         O77   2.436       .  S
Zr75         O81   2.374       .  S
Zr75         O82   2.371       .  S
Zr75        O105   2.374       .  S
Zr75        O107   2.373       .  S
O76         H119   0.990       .  S
O77         H118   0.990       .  S
O77         H122   0.990       .  S
Zr78         O79   2.435       .  S
Zr78         O80   2.436       .  S
Zr78         O82   2.371       .  S
Zr78         O81   2.373       .  S
Zr78        O106   2.373       .  S
Zr78        O108   2.375       .  S
O79         H120   0.990       .  S
O79         H123   0.990       .  S
O80         H113   0.990       .  S
O81        Zr101   2.378       .  S
O82        Zr102   2.382       .  S
O82         H109   0.966       .  S
O83         Zr95   2.446       .  S
O83          C85   1.287       .  A
O84        Zr102   2.419       .  S
O84          C85   1.284       .  A
C85         C126   1.433       .  S
O86         Zr98   2.444       .  S
O86          C88   1.287       .  A
O87        Zr101   2.419       .  S
O87          C88   1.284       .  A
C88         C136   1.434       .  S
O89         Zr98   2.444       .  S
O89          C91   1.287       .  A
O90        Zr102   2.421       .  S
O90          C91   1.284       .  A
C91         C127   1.433       .  S
O92         Zr95   2.444       .  S
O92          C94   1.287       .  A
O93        Zr101   2.420       .  S
O93          C94   1.284       .  A
C94         C132   1.434       .  S
Zr95         O96   2.436       .  S
Zr95         O97   2.435       .  S
Zr95        O103   2.370       .  S
Zr95        O104   2.373       .  S
Zr95        O107   2.373       .  S
Zr95        O105   2.376       .  S
O96         H116   0.990       .  S
O96         H121   0.990       .  S
O97         H117   0.990       .  S
Zr98         O99   2.434       .  S
Zr98        O100   2.435       .  S
Zr98        O104   2.374       .  S
Zr98        O103   2.371       .  S
Zr98        O108   2.374       .  S
Zr98        O106   2.371       .  S
O99         H115   0.990       .  S
O100        H114   0.990       .  S
O100        H124   0.990       .  S
Zr101       O104   2.378       .  S
Zr101       O106   2.384       .  S
Zr101       O107   2.384       .  S
Zr102       O103   2.382       .  S
Zr102       O105   2.382       .  S
Zr102       O108   2.382       .  S
O103        H111   0.966       .  S
O106        H110   0.966       .  S
O107        H112   0.966       .  S
C125        C126   1.205       .  T
C127        C128   1.205       .  T
C129        C130   1.205       .  T
C131        C132   1.205       .  T
C133        C134   1.206       .  T
C135        C136   1.205       .  T
C137        C138   1.205       .  T
C139        C140   1.206       .  T
O141       Zr153   2.445       .  S
O141        C143   1.287       .  A
O142       Zr739   2.420       .  S
O142        C143   1.284       .  A
C143        C273   1.434       .  S
O144       Zr996   2.446       .  S
O144        C146   1.287       .  A
O145        C146   1.284       .  A
C146        C270   1.433       .  S
O147       Zr156   2.444       .  S
O147        C149   1.287       .  A
O148       Zr599   2.420       .  S
O148        C149   1.284       .  A
C149        C280   1.434       .  S
O150       Zr993   2.444       .  S
O150        C152   1.287       .  A
O151       Zr180   2.421       .  S
O151        C152   1.284       .  A
C152        C278   1.434       .  S
Zr153       O990   2.444       .  S
Zr153       O154   2.434       .  S
Zr153       O995   2.436       .  S
Zr153       O159   2.374       .  S
Zr153      O1000   2.371       .  S
Zr153      O1023   2.374       .  S
Zr153       O605   2.373       .  S
O154        H197   0.990       .  S
O155       Zr993   2.436       .  S
O155       H1036   0.990   1_455  S
O155       H1040   0.990       .  S
Zr156       O984   2.446       .  S
Zr156       O157   2.435       .  S
Zr156       O998   2.436       .  S
Zr156       O860   2.371       .  S
Zr156       O604   2.373       .  S
Zr156      O1026   2.375       .  S
O157       H1038   0.990       .  S
O157        H201   0.990       .  S
O158       Zr996   2.436       .  S
O158       H1031   0.990   1_455  S
O159       Zr296   2.373       .  S
O159       Zr739   2.378       .  S
O160       Zr993   2.371       .  S
O160      Zr1136   2.371       .  S
O160       Zr180   2.382       .  S
O160        H327   0.966       .  S
O161       Zr173   2.446       .  S
O161        C163   1.287       .  A
O162       Zr600   2.419       .  S
O162        C163   1.284       .  A
C163        C268   1.433       .  S
O164      Zr1016   2.444       .  S
O164        C166   1.287       .  A
O165       Zr179   2.419       .  S
O165        C166   1.284       .  A
C166        C271   1.434       .  S
O167       Zr176   2.444       .  S
O167        C169   1.287       .  A
O168       Zr460   2.421       .  S
O168        C169   1.284       .  A
C169        C265   1.433       .  S
O170      Zr1013   2.444       .  S
O170        C172   1.287       .  A
O171       Zr319   2.420       .  S
O171        C172   1.284       .  A
C172        C275   1.434       .  S
Zr173      O1010   2.444   1_455  S
Zr173       O174   2.436       .  S
Zr173       O175   2.435       .  S
Zr173       O321   2.370       .  S
Zr173      O1162   2.373   1_455  S
Zr173      O1025   2.373   1_455  S
Zr173       O603   2.376       .  S
O174        H194   0.990       .  S
O174        H199   0.990       .  S
O175        H195   0.990       .  S
Zr176      O1004   2.444   1_455  S
Zr176       O177   2.434       .  S
Zr176       O178   2.435       .  S
Zr176      O1022   2.374   1_455  S
Zr176       O181   2.371       .  S
Zr176       O606   2.374       .  S
Zr176      O1024   2.371   1_455  S
O177       H1033   0.990       .  S
O178        H192   0.990       .  S
O178        H202   0.990       .  S
Zr179       O422   2.420   1_545  S
Zr179       O568   2.420   1_545  S
Zr179       O439   2.378   1_545  S
Zr179       O182   2.378       .  S
Zr179       O184   2.384       .  S
Zr180       O285   2.419       .  S
Zr180       O582   2.419       .  S
Zr180       O728   2.421       .  S
Zr180       O741   2.382       .  S
Zr180       O183   2.382       .  S
Zr180       O326   2.382       .  S
O181       Zr460   2.382       .  S
O182       Zr873   2.373       .  S
O182      Zr1016   2.374       .  S
O183       Zr993   2.374       .  S
O183       Zr593   2.376       .  S
O184       Zr576   2.373   1_545  S
O184      Zr1016   2.371       .  S
O184        H188   0.966       .  S
O185       Zr573   2.373   1_545  S
O185      Zr1013   2.373       .  S
O185       Zr319   2.384       .  S
O185        H190   0.966       .  S
O186       Zr996   2.375       .  S
O186       Zr596   2.374       .  S
H189        O321   0.966       .  S
H191        O998   0.990       .  S
H193       O1017   0.990       .  S
H196        O995   0.990       .  S
H198        O997   0.990       .  S
H200        O995   0.990       .  S
O203       Zr215   2.445       .  S
O203        C205   1.287       .  A
O204       Zr241   2.420       .  S
O204        C205   1.284       .  A
C205        C279   1.434       .  S
O206       Zr218   2.446       .  S
O206        C208   1.287       .  A
O207       Zr242   2.419       .  S
O207        C208   1.284       .  A
C208        C277   1.433       .  S
O209       Zr218   2.444       .  S
O209        C211   1.287       .  A
O210       Zr241   2.420       .  S
O210        C211   1.284       .  A
C211        C274   1.434       .  S
O212       Zr215   2.444       .  S
O212        C214   1.287       .  A
O213       Zr242   2.421       .  S
O213        C214   1.284       .  A
C214        C269   1.434       .  S
Zr215       O216   2.434       .  S
Zr215       O217   2.436       .  S
Zr215       O221   2.374       .  S
Zr215       O222   2.371       .  S
Zr215       O245   2.374       .  S
Zr215       O247   2.373       .  S
O216        H259   0.990       .  S
O217        H258   0.990       .  S
O217        H262   0.990       .  S
Zr218       O219   2.435       .  S
Zr218       O220   2.436       .  S
Zr218       O222   2.371       .  S
Zr218       O221   2.373       .  S
Zr218       O246   2.373       .  S
Zr218       O248   2.375       .  S
O219        H260   0.990       .  S
O219        H263   0.990       .  S
O220        H253   0.990       .  S
O221       Zr241   2.378       .  S
O222       Zr242   2.382       .  S
O222        H249   0.966       .  S
O223       Zr235   2.446       .  S
O223        C225   1.287       .  A
O224       Zr242   2.419       .  S
O224        C225   1.284       .  A
C225        C266   1.433       .  S
O226       Zr238   2.444       .  S
O226        C228   1.287       .  A
O227       Zr241   2.419       .  S
O227        C228   1.284       .  A
C228        C276   1.434       .  S
O229       Zr238   2.444       .  S
O229        C231   1.287       .  A
O230       Zr242   2.421       .  S
O230        C231   1.284       .  A
C231        C267   1.433       .  S
O232       Zr235   2.444       .  S
O232        C234   1.287       .  A
O233       Zr241   2.420       .  S
O233        C234   1.284       .  A
C234        C272   1.434       .  S
Zr235       O236   2.436       .  S
Zr235       O237   2.435       .  S
Zr235       O243   2.370       .  S
Zr235       O244   2.373       .  S
Zr235       O247   2.373       .  S
Zr235       O245   2.376       .  S
O236        H256   0.990       .  S
O236        H261   0.990       .  S
O237        H257   0.990       .  S
Zr238       O239   2.434       .  S
Zr238       O240   2.435       .  S
Zr238       O244   2.374       .  S
Zr238       O243   2.371       .  S
Zr238       O248   2.374       .  S
Zr238       O246   2.371       .  S
O239        H255   0.990       .  S
O240        H254   0.990       .  S
O240        H264   0.990       .  S
Zr241       O244   2.378       .  S
Zr241       O246   2.384       .  S
Zr241       O247   2.384       .  S
Zr242       O243   2.382       .  S
Zr242       O245   2.382       .  S
Zr242       O248   2.382       .  S
O243        H251   0.966       .  S
O246        H250   0.966       .  S
O247        H252   0.966       .  S
C265        C266   1.205       .  T
C267        C268   1.205       .  T
C269        C270   1.205       .  T
C271        C272   1.205       .  T
C273        C274   1.206       .  T
C275        C276   1.205       .  T
C277        C278   1.205       .  T
C279        C280   1.206       .  T
O281       Zr293   2.445       .  S
O281        C283   1.287       .  A
O282       Zr459   2.420       .  S
O282        C283   1.284       .  A
C283        C413   1.434       .  S
O284      Zr1136   2.446       .  S
O284        C286   1.287       .  A
O285        C286   1.284       .  A
C286        C410   1.433       .  S
O287       Zr296   2.444       .  S
O287        C289   1.287       .  A
O288       Zr739   2.420       .  S
O288        C289   1.284       .  A
C289        C420   1.434       .  S
O290      Zr1133   2.444       .  S
O290        C292   1.287       .  A
O291       Zr320   2.421       .  S
O291        C292   1.284       .  A
C292        C418   1.434       .  S
Zr293      O1130   2.444       .  S
Zr293       O294   2.434       .  S
Zr293      O1135   2.436       .  S
Zr293       O299   2.374       .  S
Zr293      O1140   2.371       .  S
Zr293      O1163   2.374       .  S
Zr293       O745   2.373       .  S
O294        H337   0.990       .  S
O295      Zr1133   2.436       .  S
O295       H1176   0.990   1_455  S
O295       H1180   0.990       .  S
Zr296      O1124   2.446       .  S
Zr296       O297   2.435       .  S
Zr296      O1138   2.436       .  S
Zr296      O1000   2.371       .  S
Zr296       O744   2.373       .  S
Zr296      O1166   2.375       .  S
O297       H1178   0.990       .  S
O297        H341   0.990       .  S
O298      Zr1136   2.436       .  S
O298       H1171   0.990   1_455  S
O299       Zr459   2.378       .  S
O300      Zr1133   2.371       .  S
O300       Zr856   2.371   1_556  S
O300       Zr320   2.382       .  S
O301       Zr313   2.446       .  S
O301        C303   1.287       .  A
O302       Zr740   2.419       .  S
O302        C303   1.284       .  A
C303        C408   1.433       .  S
O304      Zr1156   2.444       .  S
O304        C306   1.287       .  A
O305       Zr319   2.419       .  S
O305        C306   1.284       .  A
C306        C411   1.434       .  S
O307       Zr316   2.444       .  S
O307        C309   1.287       .  A
O308       Zr600   2.421       .  S
O308        C309   1.284       .  A
C309        C405   1.433       .  S
O310      Zr1153   2.444       .  S
O310        C312   1.287       .  A
O311        C312   1.284       .  A
C312        C415   1.434       .  S
Zr313      O1150   2.444   1_455  S
Zr313       O314   2.436       .  S
Zr313       O315   2.435       .  S
Zr313       O882   2.373   1_456  S
Zr313      O1165   2.373   1_455  S
Zr313       O743   2.376       .  S
O314        H334   0.990       .  S
O314        H339   0.990       .  S
O315        H335   0.990       .  S
Zr316      O1144   2.444   1_455  S
Zr316       O317   2.434       .  S
Zr316       O318   2.435       .  S
Zr316      O1162   2.374   1_455  S
Zr316       O321   2.371       .  S
Zr316       O746   2.374       .  S
Zr316      O1164   2.371   1_455  S
O317       H1173   0.990       .  S
O318        H332   0.990       .  S
O318        H342   0.990       .  S
Zr319       O562   2.420   1_545  S
Zr319       O708   2.420   1_545  S
Zr319       O579   2.378   1_545  S
Zr319       O322   2.378       .  S
Zr319       O324   2.384       .  S
Zr320       O722   2.419       .  S
Zr320       O448   2.421   1_556  S
Zr320       O461   2.382   1_556  S
Zr320       O323   2.382       .  S
O321       Zr600   2.382       .  S
O322      Zr1013   2.373       .  S
O322      Zr1156   2.374       .  S
O323      Zr1133   2.374       .  S
O323       Zr733   2.376       .  S
O324       Zr716   2.373   1_545  S
O324      Zr1156   2.371       .  S
O324        H328   0.966       .  S
O325       Zr713   2.373   1_545  S
O325      Zr1153   2.373       .  S
O325        H330   0.966       .  S
O326      Zr1136   2.375       .  S
O326       Zr736   2.374       .  S
H331       O1138   0.990       .  S
H333       O1157   0.990       .  S
H336       O1135   0.990       .  S
H338       O1137   0.990       .  S
H340       O1135   0.990       .  S
O343       Zr355   2.445       .  S
O343        C345   1.287       .  A
O344       Zr381   2.420       .  S
O344        C345   1.284       .  A
C345        C419   1.434       .  S
O346       Zr358   2.446       .  S
O346        C348   1.287       .  A
O347       Zr382   2.419       .  S
O347        C348   1.284       .  A
C348        C417   1.433       .  S
O349       Zr358   2.444       .  S
O349        C351   1.287       .  A
O350       Zr381   2.420       .  S
O350        C351   1.284       .  A
C351        C414   1.434       .  S
O352       Zr355   2.444       .  S
O352        C354   1.287       .  A
O353       Zr382   2.421       .  S
O353        C354   1.284       .  A
C354        C409   1.434       .  S
Zr355       O356   2.434       .  S
Zr355       O357   2.436       .  S
Zr355       O361   2.374       .  S
Zr355       O362   2.371       .  S
Zr355       O385   2.374       .  S
Zr355       O387   2.373       .  S
O356        H399   0.990       .  S
O357        H398   0.990       .  S
O357        H402   0.990       .  S
Zr358       O359   2.435       .  S
Zr358       O360   2.436       .  S
Zr358       O362   2.371       .  S
Zr358       O361   2.373       .  S
Zr358       O386   2.373       .  S
Zr358       O388   2.375       .  S
O359        H400   0.990       .  S
O359        H403   0.990       .  S
O360        H393   0.990       .  S
O361       Zr381   2.378       .  S
O362       Zr382   2.382       .  S
O362        H389   0.966       .  S
O363       Zr375   2.446       .  S
O363        C365   1.287       .  A
O364       Zr382   2.419       .  S
O364        C365   1.284       .  A
C365        C406   1.433       .  S
O366       Zr378   2.444       .  S
O366        C368   1.287       .  A
O367       Zr381   2.419       .  S
O367        C368   1.284       .  A
C368        C416   1.434       .  S
O369       Zr378   2.444       .  S
O369        C371   1.287       .  A
O370       Zr382   2.421       .  S
O370        C371   1.284       .  A
C371        C407   1.433       .  S
O372       Zr375   2.444       .  S
O372        C374   1.287       .  A
O373       Zr381   2.420       .  S
O373        C374   1.284       .  A
C374        C412   1.434       .  S
Zr375       O376   2.436       .  S
Zr375       O377   2.435       .  S
Zr375       O383   2.370       .  S
Zr375       O384   2.373       .  S
Zr375       O387   2.373       .  S
Zr375       O385   2.376       .  S
O376        H396   0.990       .  S
O376        H401   0.990       .  S
O377        H397   0.990       .  S
Zr378       O379   2.434       .  S
Zr378       O380   2.435       .  S
Zr378       O384   2.374       .  S
Zr378       O383   2.371       .  S
Zr378       O388   2.374       .  S
Zr378       O386   2.371       .  S
O379        H395   0.990       .  S
O380        H394   0.990       .  S
O380        H404   0.990       .  S
Zr381       O384   2.378       .  S
Zr381       O386   2.384       .  S
Zr381       O387   2.384       .  S
Zr382       O383   2.382       .  S
Zr382       O385   2.382       .  S
Zr382       O388   2.382       .  S
O383        H391   0.966       .  S
O386        H390   0.966       .  S
O387        H392   0.966       .  S
C405        C406   1.205       .  T
C407        C408   1.205       .  T
C409        C410   1.205       .  T
C411        C412   1.205       .  T
C413        C414   1.206       .  T
C415        C416   1.205       .  T
C417        C418   1.205       .  T
C419        C420   1.206       .  T
O421       Zr433   2.445       .  S
O421        C423   1.287       .  A
O422        C423   1.284       .  A
C423        C553   1.434       .  S
O424      Zr1276   2.446       .  S
O424        C426   1.287       .  A
O425       Zr740   2.419   1_564  S
O425        C426   1.284       .  A
C426        C550   1.433       .  S
O427       Zr436   2.444       .  S
O427        C429   1.287       .  A
O428        C429   1.284       .  A
C429        C560   1.434       .  S
O430      Zr1273   2.444       .  S
O430        C432   1.287       .  A
O431       Zr460   2.421   1_565  S
O431        C432   1.284       .  A
C432        C558   1.434       .  S
Zr433      O1270   2.444       .  S
Zr433       O434   2.434       .  S
Zr433      O1275   2.436       .  S
Zr433       O439   2.374       .  S
Zr433      O1280   2.371       .  S
Zr433      O1303   2.374   1_565  S
O434        H477   0.990       .  S
O435      Zr1273   2.436       .  S
O435       H1316   0.990   1_455  S
O435       H1320   0.990       .  S
Zr436      O1264   2.446       .  S
Zr436       O437   2.435       .  S
Zr436      O1278   2.436       .  S
Zr436      O1560   2.371   1_554  S
Zr436       O719   2.373   1_554  S
Zr436      O1306   2.375   1_565  S
O437       H1318   0.990       .  S
O437        H481   0.990       .  S
O438      Zr1276   2.436       .  S
O438       H1311   0.990   1_455  S
O439       Zr576   2.373       .  S
O440      Zr1273   2.371       .  S
O440      Zr1416   2.371       .  S
O440       Zr460   2.382   1_565  S
O440        H607   0.966       .  S
O441       Zr453   2.446       .  S
O441        C443   1.287       .  A
O442        C443   1.284       .  A
C443        C548   1.433       .  S
O444      Zr1296   2.444       .  S
O444        C446   1.287       .  A
O445       Zr459   2.419   1_554  S
O445        C446   1.284       .  A
C446        C551   1.434       .  S
O447       Zr456   2.444       .  S
O447        C449   1.287       .  A
O448        C449   1.284       .  A
C449        C545   1.433       .  S
O450      Zr1293   2.444       .  S
O450        C452   1.287       .  A
O451       Zr599   2.420       .  S
O451        C452   1.284       .  A
C452        C555   1.434       .  S
Zr453      O1290   2.444   1_455  S
Zr453       O454   2.436       .  S
Zr453       O455   2.435       .  S
Zr453       O601   2.370       .  S
Zr453      O1442   2.373   1_455  S
Zr453      O1305   2.373   1_455  S
O454        H474   0.990       .  S
O454        H479   0.990       .  S
O455        H475   0.990       .  S
Zr456      O1284   2.444   1_455  S
Zr456       O457   2.434       .  S
Zr456       O458   2.435       .  S
Zr456      O1302   2.374   1_455  S
Zr456       O461   2.371       .  S
Zr456      O1304   2.371   1_455  S
O457       H1313   0.990       .  S
O458        H472   0.990       .  S
O458        H482   0.990       .  S
Zr459       O731   2.420       .  S
Zr459       O462   2.378   1_556  S
Zr459       O464   2.384   1_556  S
Zr459       O745   2.384       .  S
Zr460       O565   2.419   1_545  S
Zr460       O463   2.382       .  S
Zr460       O606   2.382       .  S
O461       Zr733   2.370   1_554  S
O461        H749   0.966       .  S
O462      Zr1573   2.373   1_554  S
O462      Zr1296   2.374       .  S
O463      Zr1273   2.374   1_545  S
O464      Zr1296   2.371       .  S
O464        H468   0.966       .  S
O465      Zr1293   2.373       .  S
O465       Zr599   2.384       .  S
O465        H470   0.966       .  S
O466      Zr1276   2.375   1_545  S
O466       Zr740   2.382   1_554  S
H467        O720   0.966       .  S
H469        O601   0.966       .  S
H471       O1278   0.990       .  S
H473       O1297   0.990       .  S
H476       O1275   0.990       .  S
H478       O1277   0.990       .  S
H480       O1275   0.990       .  S
O483       Zr495   2.445       .  S
O483        C485   1.287       .  A
O484       Zr521   2.420       .  S
O484        C485   1.284       .  A
C485        C559   1.434       .  S
O486       Zr498   2.446       .  S
O486        C488   1.287       .  A
O487       Zr522   2.419       .  S
O487        C488   1.284       .  A
C488        C557   1.433       .  S
O489       Zr498   2.444       .  S
O489        C491   1.287       .  A
O490       Zr521   2.420       .  S
O490        C491   1.284       .  A
C491        C554   1.434       .  S
O492       Zr495   2.444       .  S
O492        C494   1.287       .  A
O493       Zr522   2.421       .  S
O493        C494   1.284       .  A
C494        C549   1.434       .  S
Zr495       O496   2.434       .  S
Zr495       O497   2.436       .  S
Zr495       O501   2.374       .  S
Zr495       O502   2.371       .  S
Zr495       O525   2.374       .  S
Zr495       O527   2.373       .  S
O496        H539   0.990       .  S
O497        H538   0.990       .  S
O497        H542   0.990       .  S
Zr498       O499   2.435       .  S
Zr498       O500   2.436       .  S
Zr498       O502   2.371       .  S
Zr498       O501   2.373       .  S
Zr498       O526   2.373       .  S
Zr498       O528   2.375       .  S
O499        H540   0.990       .  S
O499        H543   0.990       .  S
O500        H533   0.990       .  S
O501       Zr521   2.378       .  S
O502       Zr522   2.382       .  S
O502        H529   0.966       .  S
O503       Zr515   2.446       .  S
O503        C505   1.287       .  A
O504       Zr522   2.419       .  S
O504        C505   1.284       .  A
C505        C546   1.433       .  S
O506       Zr518   2.444       .  S
O506        C508   1.287       .  A
O507       Zr521   2.419       .  S
O507        C508   1.284       .  A
C508        C556   1.434       .  S
O509       Zr518   2.444       .  S
O509        C511   1.287       .  A
O510       Zr522   2.421       .  S
O510        C511   1.284       .  A
C511        C547   1.433       .  S
O512       Zr515   2.444       .  S
O512        C514   1.287       .  A
O513       Zr521   2.420       .  S
O513        C514   1.284       .  A
C514        C552   1.434       .  S
Zr515       O516   2.436       .  S
Zr515       O517   2.435       .  S
Zr515       O523   2.370       .  S
Zr515       O524   2.373       .  S
Zr515       O527   2.373       .  S
Zr515       O525   2.376       .  S
O516        H536   0.990       .  S
O516        H541   0.990       .  S
O517        H537   0.990       .  S
Zr518       O519   2.434       .  S
Zr518       O520   2.435       .  S
Zr518       O524   2.374       .  S
Zr518       O523   2.371       .  S
Zr518       O528   2.374       .  S
Zr518       O526   2.371       .  S
O519        H535   0.990       .  S
O520        H534   0.990       .  S
O520        H544   0.990       .  S
Zr521       O524   2.378       .  S
Zr521       O526   2.384       .  S
Zr521       O527   2.384       .  S
Zr522       O523   2.382       .  S
Zr522       O525   2.382       .  S
Zr522       O528   2.382       .  S
O523        H531   0.966       .  S
O526        H530   0.966       .  S
O527        H532   0.966       .  S
C545        C546   1.205       .  T
C547        C548   1.205       .  T
C549        C550   1.205       .  T
C551        C552   1.205       .  T
C553        C554   1.206       .  T
C555        C556   1.205       .  T
C557        C558   1.205       .  T
C559        C560   1.206       .  T
O561       Zr573   2.445       .  S
O561        C563   1.287       .  A
O562        C563   1.284       .  A
C563        C693   1.434       .  S
O564      Zr1416   2.446       .  S
O564        C566   1.287       .  A
O565        C566   1.284       .  A
C566        C690   1.433       .  S
O567       Zr576   2.444       .  S
O567        C569   1.287       .  A
O568        C569   1.284       .  A
C569        C700   1.434       .  S
O570      Zr1413   2.444       .  S
O570        C572   1.287       .  A
O571       Zr600   2.421   1_565  S
O571        C572   1.284       .  A
C572        C698   1.434       .  S
Zr573      O1410   2.444       .  S
Zr573       O574   2.434       .  S
Zr573      O1415   2.436       .  S
Zr573       O579   2.374       .  S
Zr573      O1420   2.371       .  S
Zr573      O1443   2.374   1_565  S
O574        H617   0.990       .  S
O575      Zr1413   2.436       .  S
O575       H1456   0.990   1_455  S
O575       H1460   0.990       .  S
Zr576      O1404   2.446       .  S
Zr576       O577   2.435       .  S
Zr576      O1418   2.436       .  S
Zr576      O1280   2.371       .  S
Zr576      O1446   2.375   1_565  S
O577       H1458   0.990       .  S
O577        H621   0.990       .  S
O578      Zr1416   2.436       .  S
O578       H1451   0.990   1_455  S
O579       Zr716   2.373       .  S
O580      Zr1413   2.371       .  S
O580      Zr1556   2.371       .  S
O580       Zr600   2.382   1_565  S
O580        H747   0.966       .  S
O581       Zr593   2.446       .  S
O581        C583   1.287       .  A
O582        C583   1.284       .  A
C583        C688   1.433       .  S
O584      Zr1436   2.444       .  S
O584        C586   1.287       .  A
O585       Zr599   2.419       .  S
O585        C586   1.284       .  A
C586        C691   1.434       .  S
O587       Zr596   2.444       .  S
O587        C589   1.287       .  A
O588        C589   1.284       .  A
C589        C685   1.433       .  S
O590      Zr1433   2.444       .  S
O590        C592   1.287       .  A
O591       Zr739   2.420       .  S
O591        C592   1.284       .  A
C592        C695   1.434       .  S
Zr593      O1430   2.444   1_455  S
Zr593       O594   2.436       .  S
Zr593       O595   2.435       .  S
Zr593       O741   2.370       .  S
Zr593      O1582   2.373   1_455  S
Zr593      O1445   2.373   1_455  S
O594        H614   0.990       .  S
O594        H619   0.990       .  S
O595        H615   0.990       .  S
Zr596      O1424   2.444   1_455  S
Zr596       O597   2.434       .  S
Zr596       O598   2.435       .  S
Zr596      O1442   2.374   1_455  S
Zr596       O601   2.371       .  S
Zr596      O1444   2.371   1_455  S
O597       H1453   0.990       .  S
O598        H612   0.990       .  S
O598        H622   0.990       .  S
Zr599       O602   2.378       .  S
Zr599       O604   2.384       .  S
Zr600       O705   2.419   1_545  S
Zr600       O603   2.382       .  S
Zr600       O746   2.382       .  S
O602      Zr1293   2.373       .  S
O602      Zr1436   2.374       .  S
O603      Zr1413   2.374   1_545  S
O604      Zr1436   2.371       .  S
O604        H608   0.966       .  S
O605      Zr1433   2.373       .  S
O605       Zr739   2.384       .  S
O605        H610   0.966       .  S
O606      Zr1416   2.375   1_545  S
H609        O741   0.966       .  S
H611       O1418   0.990       .  S
H613       O1437   0.990       .  S
H616       O1415   0.990       .  S
H618       O1417   0.990       .  S
H620       O1415   0.990       .  S
O623       Zr635   2.445       .  S
O623        C625   1.287       .  A
O624       Zr661   2.420       .  S
O624        C625   1.284       .  A
C625        C699   1.434       .  S
O626       Zr638   2.446       .  S
O626        C628   1.287       .  A
O627       Zr662   2.419       .  S
O627        C628   1.284       .  A
C628        C697   1.433       .  S
O629       Zr638   2.444       .  S
O629        C631   1.287       .  A
O630       Zr661   2.420       .  S
O630        C631   1.284       .  A
C631        C694   1.434       .  S
O632       Zr635   2.444       .  S
O632        C634   1.287       .  A
O633       Zr662   2.421       .  S
O633        C634   1.284       .  A
C634        C689   1.434       .  S
Zr635       O636   2.434       .  S
Zr635       O637   2.436       .  S
Zr635       O641   2.374       .  S
Zr635       O642   2.371       .  S
Zr635       O665   2.374       .  S
Zr635       O667   2.373       .  S
O636        H679   0.990       .  S
O637        H678   0.990       .  S
O637        H682   0.990       .  S
Zr638       O639   2.435       .  S
Zr638       O640   2.436       .  S
Zr638       O642   2.371       .  S
Zr638       O641   2.373       .  S
Zr638       O666   2.373       .  S
Zr638       O668   2.375       .  S
O639        H680   0.990       .  S
O639        H683   0.990       .  S
O640        H673   0.990       .  S
O641       Zr661   2.378       .  S
O642       Zr662   2.382       .  S
O642        H669   0.966       .  S
O643       Zr655   2.446       .  S
O643        C645   1.287       .  A
O644       Zr662   2.419       .  S
O644        C645   1.284       .  A
C645        C686   1.433       .  S
O646       Zr658   2.444       .  S
O646        C648   1.287       .  A
O647       Zr661   2.419       .  S
O647        C648   1.284       .  A
C648        C696   1.434       .  S
O649       Zr658   2.444       .  S
O649        C651   1.287       .  A
O650       Zr662   2.421       .  S
O650        C651   1.284       .  A
C651        C687   1.433       .  S
O652       Zr655   2.444       .  S
O652        C654   1.287       .  A
O653       Zr661   2.420       .  S
O653        C654   1.284       .  A
C654        C692   1.434       .  S
Zr655       O656   2.436       .  S
Zr655       O657   2.435       .  S
Zr655       O663   2.370       .  S
Zr655       O664   2.373       .  S
Zr655       O667   2.373       .  S
Zr655       O665   2.376       .  S
O656        H676   0.990       .  S
O656        H681   0.990       .  S
O657        H677   0.990       .  S
Zr658       O659   2.434       .  S
Zr658       O660   2.435       .  S
Zr658       O664   2.374       .  S
Zr658       O663   2.371       .  S
Zr658       O668   2.374       .  S
Zr658       O666   2.371       .  S
O659        H675   0.990       .  S
O660        H674   0.990       .  S
O660        H684   0.990       .  S
Zr661       O664   2.378       .  S
Zr661       O666   2.384       .  S
Zr661       O667   2.384       .  S
Zr662       O663   2.382       .  S
Zr662       O665   2.382       .  S
Zr662       O668   2.382       .  S
O663        H671   0.966       .  S
O666        H670   0.966       .  S
O667        H672   0.966       .  S
C685        C686   1.205       .  T
C687        C688   1.205       .  T
C689        C690   1.205       .  T
C691        C692   1.205       .  T
C693        C694   1.206       .  T
C695        C696   1.205       .  T
C697        C698   1.205       .  T
C699        C700   1.206       .  T
O701       Zr713   2.445       .  S
O701        C703   1.287       .  A
O702        C703   1.284       .  A
C703        C833   1.434       .  S
O704      Zr1556   2.446       .  S
O704        C706   1.287       .  A
O705        C706   1.284       .  A
C706        C830   1.433       .  S
O707       Zr716   2.444       .  S
O707        C709   1.287       .  A
O708        C709   1.284       .  A
C709        C840   1.434       .  S
O710      Zr1553   2.444       .  S
O710        C712   1.287       .  A
O711       Zr740   2.421   1_565  S
O711        C712   1.284       .  A
C712        C838   1.434       .  S
Zr713      O1550   2.444       .  S
Zr713       O714   2.434       .  S
Zr713      O1555   2.436       .  S
Zr713       O719   2.374       .  S
Zr713      O1560   2.371       .  S
Zr713      O1583   2.374   1_565  S
O714        H757   0.990       .  S
O715      Zr1553   2.436       .  S
O715       H1596   0.990   1_455  S
O715       H1600   0.990       .  S
Zr716      O1544   2.446       .  S
Zr716       O717   2.435       .  S
Zr716      O1558   2.436       .  S
Zr716      O1420   2.371       .  S
Zr716      O1586   2.375   1_565  S
O717       H1598   0.990       .  S
O717        H761   0.990       .  S
O718      Zr1556   2.436       .  S
O718       H1591   0.990   1_455  S
O720      Zr1553   2.371       .  S
O720      Zr1276   2.371   1_556  S
O720       Zr740   2.382   1_565  S
O721       Zr733   2.446       .  S
O721        C723   1.287       .  A
O722        C723   1.284       .  A
C723        C828   1.433       .  S
O724      Zr1576   2.444       .  S
O724        C726   1.287       .  A
O725       Zr739   2.419       .  S
O725        C726   1.284       .  A
C726        C831   1.434       .  S
O727       Zr736   2.444       .  S
O727        C729   1.287       .  A
O728        C729   1.284       .  A
C729        C825   1.433       .  S
O730      Zr1573   2.444       .  S
O730        C732   1.287       .  A
O731        C732   1.284       .  A
C732        C835   1.434       .  S
Zr733      O1570   2.444   1_455  S
Zr733       O734   2.436       .  S
Zr733       O735   2.435       .  S
Zr733      O1302   2.373   1_456  S
Zr733      O1585   2.373   1_455  S
O734        H754   0.990       .  S
O734        H759   0.990       .  S
O735        H755   0.990       .  S
Zr736      O1564   2.444   1_455  S
Zr736       O737   2.434       .  S
Zr736       O738   2.435       .  S
Zr736      O1582   2.374   1_455  S
Zr736       O741   2.371       .  S
Zr736      O1584   2.371   1_455  S
O737       H1593   0.990       .  S
O738        H752   0.990       .  S
O738        H762   0.990       .  S
Zr739       O742   2.378       .  S
Zr739       O744   2.384       .  S
Zr740       O743   2.382       .  S
O742      Zr1433   2.373       .  S
O742      Zr1576   2.374       .  S
O743      Zr1553   2.374   1_545  S
O744      Zr1576   2.371       .  S
O744        H748   0.966       .  S
O745      Zr1573   2.373       .  S
O745        H750   0.966       .  S
O746      Zr1556   2.375   1_545  S
H751       O1558   0.990       .  S
H753       O1577   0.990       .  S
H756       O1555   0.990       .  S
H758       O1557   0.990       .  S
H760       O1555   0.990       .  S
O763       Zr775   2.445       .  S
O763        C765   1.287       .  A
O764       Zr801   2.420       .  S
O764        C765   1.284       .  A
C765        C839   1.434       .  S
O766       Zr778   2.446       .  S
O766        C768   1.287       .  A
O767       Zr802   2.419       .  S
O767        C768   1.284       .  A
C768        C837   1.433       .  S
O769       Zr778   2.444       .  S
O769        C771   1.287       .  A
O770       Zr801   2.420       .  S
O770        C771   1.284       .  A
C771        C834   1.434       .  S
O772       Zr775   2.444       .  S
O772        C774   1.287       .  A
O773       Zr802   2.421       .  S
O773        C774   1.284       .  A
C774        C829   1.434       .  S
Zr775       O776   2.434       .  S
Zr775       O777   2.436       .  S
Zr775       O781   2.374       .  S
Zr775       O782   2.371       .  S
Zr775       O805   2.374       .  S
Zr775       O807   2.373       .  S
O776        H819   0.990       .  S
O777        H818   0.990       .  S
O777        H822   0.990       .  S
Zr778       O779   2.435       .  S
Zr778       O780   2.436       .  S
Zr778       O782   2.371       .  S
Zr778       O781   2.373       .  S
Zr778       O806   2.373       .  S
Zr778       O808   2.375       .  S
O779        H820   0.990       .  S
O779        H823   0.990       .  S
O780        H813   0.990       .  S
O781       Zr801   2.378       .  S
O782       Zr802   2.382       .  S
O782        H809   0.966       .  S
O783       Zr795   2.446       .  S
O783        C785   1.287       .  A
O784       Zr802   2.419       .  S
O784        C785   1.284       .  A
C785        C826   1.433       .  S
O786       Zr798   2.444       .  S
O786        C788   1.287       .  A
O787       Zr801   2.419       .  S
O787        C788   1.284       .  A
C788        C836   1.434       .  S
O789       Zr798   2.444       .  S
O789        C791   1.287       .  A
O790       Zr802   2.421       .  S
O790        C791   1.284       .  A
C791        C827   1.433       .  S
O792       Zr795   2.444       .  S
O792        C794   1.287       .  A
O793       Zr801   2.420       .  S
O793        C794   1.284       .  A
C794        C832   1.434       .  S
Zr795       O796   2.436       .  S
Zr795       O797   2.435       .  S
Zr795       O803   2.370       .  S
Zr795       O804   2.373       .  S
Zr795       O807   2.373       .  S
Zr795       O805   2.376       .  S
O796        H816   0.990       .  S
O796        H821   0.990       .  S
O797        H817   0.990       .  S
Zr798       O799   2.434       .  S
Zr798       O800   2.435       .  S
Zr798       O804   2.374       .  S
Zr798       O803   2.371       .  S
Zr798       O808   2.374       .  S
Zr798       O806   2.371       .  S
O799        H815   0.990       .  S
O800        H814   0.990       .  S
O800        H824   0.990       .  S
Zr801       O804   2.378       .  S
Zr801       O806   2.384       .  S
Zr801       O807   2.384       .  S
Zr802       O803   2.382       .  S
Zr802       O805   2.382       .  S
Zr802       O808   2.382       .  S
O803        H811   0.966       .  S
O806        H810   0.966       .  S
O807        H812   0.966       .  S
C825        C826   1.205       .  T
C827        C828   1.205       .  T
C829        C830   1.205       .  T
C831        C832   1.205       .  T
C833        C834   1.206       .  T
C835        C836   1.205       .  T
C837        C838   1.205       .  T
C839        C840   1.206       .  T
O841       Zr853   2.445   1_655  S
O841        C843   1.287       .  A
O842      Zr1439   2.420       .  S
O842        C843   1.284       .  A
C843        C973   1.434       .  S
O844        C846   1.287       .  A
O845      Zr1160   2.419   1_554  S
O845        C846   1.284       .  A
C846        C970   1.433       .  S
O847       Zr856   2.444   1_655  S
O847        C849   1.287       .  A
O848      Zr1299   2.420   1_554  S
O848        C849   1.284       .  A
C849        C980   1.434       .  S
O850        C852   1.287       .  A
O851       Zr880   2.421       .  S
O851        C852   1.284       .  A
C852        C978   1.434       .  S
Zr853       O854   2.434       .  S
Zr853       O859   2.374   1_455  S
Zr853      O1305   2.373   1_455  S
O854        H897   0.990   1_455  S
Zr856       O857   2.435       .  S
Zr856      O1139   2.373   1_454  S
Zr856      O1304   2.373   1_455  S
O857        H901   0.990       .  S
O859       Zr996   2.373   1_655  S
O859      Zr1439   2.378       .  S
O860       Zr880   2.382       .  S
O860       H1027   0.966       .  S
O861       Zr873   2.446       .  S
O861        C863   1.287       .  A
O862      Zr1300   2.419       .  S
O862        C863   1.284       .  A
C863        C968   1.433       .  S
O864        C866   1.287       .  A
O865       Zr879   2.419   1_554  S
O865        C866   1.284       .  A
C866        C971   1.434       .  S
O867       Zr876   2.444       .  S
O867        C869   1.287       .  A
O868      Zr1580   2.421   1_554  S
O868        C869   1.284       .  A
C869        C965   1.433       .  S
O870        C872   1.287       .  A
O871      Zr1019   2.420       .  S
O871        C872   1.284       .  A
C872        C975   1.434       .  S
Zr873       O874   2.436       .  S
Zr873       O875   2.435       .  S
Zr873      O1021   2.370       .  S
Zr873      O1303   2.376       .  S
O874        H894   0.990       .  S
O874        H899   0.990       .  S
O875        H895   0.990       .  S
Zr876       O877   2.434       .  S
Zr876       O878   2.435       .  S
Zr876       O881   2.371       .  S
Zr876      O1306   2.374       .  S
O878        H892   0.990       .  S
O878        H902   0.990       .  S
Zr879      O1542   2.420   1_545  S
Zr879      O1268   2.420   1_546  S
Zr879      O1151   2.420       .  S
Zr879      O1559   2.378   1_545  S
Zr879       O882   2.378   1_556  S
Zr879       O884   2.384   1_556  S
Zr879      O1165   2.384       .  S
Zr880       O985   2.419       .  S
Zr880      O1282   2.419       .  S
Zr880      O1428   2.421       .  S
Zr880      O1441   2.382       .  S
Zr880       O883   2.382       .  S
Zr880      O1026   2.382       .  S
O881      Zr1153   2.370   1_554  S
O881      Zr1580   2.382   1_554  S
O881       H1169   0.966       .  S
O883      Zr1293   2.376       .  S
O884      Zr1276   2.373   1_645  S
O884        H888   0.966       .  S
O885      Zr1273   2.373   1_645  S
O885      Zr1019   2.384       .  S
O885        H890   0.966       .  S
O886      Zr1296   2.374       .  S
O886      Zr1160   2.382   1_554  S
H887       O1140   0.966       .  S
H889       O1021   0.966       .  S
O903       Zr915   2.445       .  S
O903        C905   1.287       .  A
O904       Zr941   2.420       .  S
O904        C905   1.284       .  A
C905        C979   1.434       .  S
O906       Zr918   2.446       .  S
O906        C908   1.287       .  A
O907       Zr942   2.419       .  S
O907        C908   1.284       .  A
C908        C977   1.433       .  S
O909       Zr918   2.444       .  S
O909        C911   1.287       .  A
O910       Zr941   2.420       .  S
O910        C911   1.284       .  A
C911        C974   1.434       .  S
O912       Zr915   2.444       .  S
O912        C914   1.287       .  A
O913       Zr942   2.421       .  S
O913        C914   1.284       .  A
C914        C969   1.434       .  S
Zr915       O916   2.434       .  S
Zr915       O917   2.436       .  S
Zr915       O921   2.374       .  S
Zr915       O922   2.371       .  S
Zr915       O945   2.374       .  S
Zr915       O947   2.373       .  S
O916        H959   0.990       .  S
O917        H958   0.990       .  S
O917        H962   0.990       .  S
Zr918       O919   2.435       .  S
Zr918       O920   2.436       .  S
Zr918       O922   2.371       .  S
Zr918       O921   2.373       .  S
Zr918       O946   2.373       .  S
Zr918       O948   2.375       .  S
O919        H960   0.990       .  S
O919        H963   0.990       .  S
O920        H953   0.990       .  S
O921       Zr941   2.378       .  S
O922       Zr942   2.382       .  S
O922        H949   0.966       .  S
O923       Zr935   2.446       .  S
O923        C925   1.287       .  A
O924       Zr942   2.419       .  S
O924        C925   1.284       .  A
C925        C966   1.433       .  S
O926       Zr938   2.444       .  S
O926        C928   1.287       .  A
O927       Zr941   2.419       .  S
O927        C928   1.284       .  A
C928        C976   1.434       .  S
O929       Zr938   2.444       .  S
O929        C931   1.287       .  A
O930       Zr942   2.421       .  S
O930        C931   1.284       .  A
C931        C967   1.433       .  S
O932       Zr935   2.444       .  S
O932        C934   1.287       .  A
O933       Zr941   2.420       .  S
O933        C934   1.284       .  A
C934        C972   1.434       .  S
Zr935       O936   2.436       .  S
Zr935       O937   2.435       .  S
Zr935       O943   2.370       .  S
Zr935       O944   2.373       .  S
Zr935       O947   2.373       .  S
Zr935       O945   2.376       .  S
O936        H956   0.990       .  S
O936        H961   0.990       .  S
O937        H957   0.990       .  S
Zr938       O939   2.434       .  S
Zr938       O940   2.435       .  S
Zr938       O944   2.374       .  S
Zr938       O943   2.371       .  S
Zr938       O948   2.374       .  S
Zr938       O946   2.371       .  S
O939        H955   0.990       .  S
O940        H954   0.990       .  S
O940        H964   0.990       .  S
Zr941       O944   2.378       .  S
Zr941       O946   2.384       .  S
Zr941       O947   2.384       .  S
Zr942       O943   2.382       .  S
Zr942       O945   2.382       .  S
Zr942       O948   2.382       .  S
O943        H951   0.966       .  S
O946        H950   0.966       .  S
O947        H952   0.966       .  S
C965        C966   1.205       .  T
C967        C968   1.205       .  T
C969        C970   1.205       .  T
C971        C972   1.205       .  T
C973        C974   1.206       .  T
C975        C976   1.205       .  T
C977        C978   1.205       .  T
C979        C980   1.206       .  T
O981       Zr993   2.445   1_655  S
O981        C983   1.287       .  A
O982      Zr1579   2.420       .  S
O982        C983   1.284       .  A
C983       C1113   1.434       .  S
O984        C986   1.287       .  A
O985        C986   1.284       .  A
C986       C1110   1.433       .  S
O987       Zr996   2.444   1_655  S
O987        C989   1.287       .  A
O988      Zr1439   2.420       .  S
O988        C989   1.284       .  A
C989       C1120   1.434       .  S
O990        C992   1.287       .  A
O991      Zr1020   2.421       .  S
O991        C992   1.284       .  A
C992       C1118   1.434       .  S
Zr993       O994   2.434       .  S
Zr993       O999   2.374   1_455  S
Zr993      O1445   2.373   1_455  S
O994       H1037   0.990   1_455  S
Zr996       O997   2.435       .  S
Zr996      O1444   2.373   1_455  S
O997       H1041   0.990       .  S
O999      Zr1136   2.373   1_655  S
O999      Zr1579   2.378       .  S
O1000     Zr1020   2.382       .  S
O1000      H1167   0.966       .  S
O1001     Zr1013   2.446       .  S
O1001      C1003   1.287       .  A
O1002     Zr1440   2.419       .  S
O1002      C1003   1.284       .  A
C1003      C1108   1.433       .  S
O1004      C1006   1.287       .  A
O1005     Zr1019   2.419       .  S
O1005      C1006   1.284       .  A
C1006      C1111   1.434       .  S
O1007     Zr1016   2.444       .  S
O1007      C1009   1.287       .  A
O1008     Zr1300   2.421       .  S
O1008      C1009   1.284       .  A
C1009      C1105   1.433       .  S
O1010      C1012   1.287       .  A
O1011     Zr1159   2.420       .  S
O1011      C1012   1.284       .  A
C1012      C1115   1.434       .  S
Zr1013     O1014   2.436       .  S
Zr1013     O1015   2.435       .  S
Zr1013     O1161   2.370       .  S
Zr1013     O1443   2.376       .  S
O1014      H1034   0.990       .  S
O1014      H1039   0.990       .  S
O1015      H1035   0.990       .  S
Zr1016     O1017   2.434       .  S
Zr1016     O1018   2.435       .  S
Zr1016     O1021   2.371       .  S
Zr1016     O1446   2.374       .  S
O1018      H1032   0.990       .  S
O1018      H1042   0.990       .  S
Zr1019     O1262   2.420   1_545  S
Zr1019     O1408   2.420   1_545  S
Zr1019     O1279   2.378   1_545  S
Zr1019     O1022   2.378       .  S
Zr1019     O1024   2.384       .  S
Zr1020     O1125   2.419       .  S
Zr1020     O1422   2.419       .  S
Zr1020     O1568   2.421       .  S
Zr1020     O1581   2.382       .  S
Zr1020     O1023   2.382       .  S
Zr1020     O1166   2.382       .  S
O1021     Zr1300   2.382       .  S
O1023     Zr1433   2.376       .  S
O1024     Zr1416   2.373   1_645  S
O1024      H1028   0.966       .  S
O1025     Zr1413   2.373   1_645  S
O1025     Zr1159   2.384       .  S
O1025      H1030   0.966       .  S
O1026     Zr1436   2.374       .  S
H1029      O1161   0.966       .  S
O1043     Zr1055   2.445       .  S
O1043      C1045   1.287       .  A
O1044     Zr1081   2.420       .  S
O1044      C1045   1.284       .  A
C1045      C1119   1.434       .  S
O1046     Zr1058   2.446       .  S
O1046      C1048   1.287       .  A
O1047     Zr1082   2.419       .  S
O1047      C1048   1.284       .  A
C1048      C1117   1.433       .  S
O1049     Zr1058   2.444       .  S
O1049      C1051   1.287       .  A
O1050     Zr1081   2.420       .  S
O1050      C1051   1.284       .  A
C1051      C1114   1.434       .  S
O1052     Zr1055   2.444       .  S
O1052      C1054   1.287       .  A
O1053     Zr1082   2.421       .  S
O1053      C1054   1.284       .  A
C1054      C1109   1.434       .  S
Zr1055     O1056   2.434       .  S
Zr1055     O1057   2.436       .  S
Zr1055     O1061   2.374       .  S
Zr1055     O1062   2.371       .  S
Zr1055     O1085   2.374       .  S
Zr1055     O1087   2.373       .  S
O1056      H1099   0.990       .  S
O1057      H1098   0.990       .  S
O1057      H1102   0.990       .  S
Zr1058     O1059   2.435       .  S
Zr1058     O1060   2.436       .  S
Zr1058     O1062   2.371       .  S
Zr1058     O1061   2.373       .  S
Zr1058     O1086   2.373       .  S
Zr1058     O1088   2.375       .  S
O1059      H1100   0.990       .  S
O1059      H1103   0.990       .  S
O1060      H1093   0.990       .  S
O1061     Zr1081   2.378       .  S
O1062     Zr1082   2.382       .  S
O1062      H1089   0.966       .  S
O1063     Zr1075   2.446       .  S
O1063      C1065   1.287       .  A
O1064     Zr1082   2.419       .  S
O1064      C1065   1.284       .  A
C1065      C1106   1.433       .  S
O1066     Zr1078   2.444       .  S
O1066      C1068   1.287       .  A
O1067     Zr1081   2.419       .  S
O1067      C1068   1.284       .  A
C1068      C1116   1.434       .  S
O1069     Zr1078   2.444       .  S
O1069      C1071   1.287       .  A
O1070     Zr1082   2.421       .  S
O1070      C1071   1.284       .  A
C1071      C1107   1.433       .  S
O1072     Zr1075   2.444       .  S
O1072      C1074   1.287       .  A
O1073     Zr1081   2.420       .  S
O1073      C1074   1.284       .  A
C1074      C1112   1.434       .  S
Zr1075     O1076   2.436       .  S
Zr1075     O1077   2.435       .  S
Zr1075     O1083   2.370       .  S
Zr1075     O1084   2.373       .  S
Zr1075     O1087   2.373       .  S
Zr1075     O1085   2.376       .  S
O1076      H1096   0.990       .  S
O1076      H1101   0.990       .  S
O1077      H1097   0.990       .  S
Zr1078     O1079   2.434       .  S
Zr1078     O1080   2.435       .  S
Zr1078     O1084   2.374       .  S
Zr1078     O1083   2.371       .  S
Zr1078     O1088   2.374       .  S
Zr1078     O1086   2.371       .  S
O1079      H1095   0.990       .  S
O1080      H1094   0.990       .  S
O1080      H1104   0.990       .  S
Zr1081     O1084   2.378       .  S
Zr1081     O1086   2.384       .  S
Zr1081     O1087   2.384       .  S
Zr1082     O1083   2.382       .  S
Zr1082     O1085   2.382       .  S
Zr1082     O1088   2.382       .  S
O1083      H1091   0.966       .  S
O1086      H1090   0.966       .  S
O1087      H1092   0.966       .  S
C1105      C1106   1.205       .  T
C1107      C1108   1.205       .  T
C1109      C1110   1.205       .  T
C1111      C1112   1.205       .  T
C1113      C1114   1.206       .  T
C1115      C1116   1.205       .  T
C1117      C1118   1.205       .  T
C1119      C1120   1.206       .  T
O1121     Zr1133   2.445   1_655  S
O1121      C1123   1.287       .  A
O1122     Zr1299   2.420       .  S
O1122      C1123   1.284       .  A
C1123      C1253   1.434       .  S
O1124      C1126   1.287       .  A
O1125      C1126   1.284       .  A
C1126      C1250   1.433       .  S
O1127     Zr1136   2.444   1_655  S
O1127      C1129   1.287       .  A
O1128     Zr1579   2.420       .  S
O1128      C1129   1.284       .  A
C1129      C1260   1.434       .  S
O1130      C1132   1.287       .  A
O1131     Zr1160   2.421       .  S
O1131      C1132   1.284       .  A
C1132      C1258   1.434       .  S
Zr1133     O1134   2.434       .  S
Zr1133     O1139   2.374   1_455  S
Zr1133     O1585   2.373   1_455  S
O1134      H1177   0.990   1_455  S
Zr1136     O1137   2.435       .  S
Zr1136     O1584   2.373   1_455  S
O1137      H1181   0.990       .  S
O1139     Zr1299   2.378       .  S
O1140     Zr1160   2.382       .  S
O1141     Zr1153   2.446       .  S
O1141      C1143   1.287       .  A
O1142     Zr1580   2.419       .  S
O1142      C1143   1.284       .  A
C1143      C1248   1.433       .  S
O1144      C1146   1.287       .  A
O1145     Zr1159   2.419       .  S
O1145      C1146   1.284       .  A
C1146      C1251   1.434       .  S
O1147     Zr1156   2.444       .  S
O1147      C1149   1.287       .  A
O1148     Zr1440   2.421       .  S
O1148      C1149   1.284       .  A
C1149      C1245   1.433       .  S
O1150      C1152   1.287       .  A
O1151      C1152   1.284       .  A
C1152      C1255   1.434       .  S
Zr1153     O1154   2.436       .  S
Zr1153     O1155   2.435       .  S
Zr1153     O1583   2.376       .  S
O1154      H1174   0.990       .  S
O1154      H1179   0.990       .  S
O1155      H1175   0.990       .  S
Zr1156     O1157   2.434       .  S
Zr1156     O1158   2.435       .  S
Zr1156     O1161   2.371       .  S
Zr1156     O1586   2.374       .  S
O1158      H1172   0.990       .  S
O1158      H1182   0.990       .  S
Zr1159     O1402   2.420   1_545  S
Zr1159     O1548   2.420   1_545  S
Zr1159     O1419   2.378   1_545  S
Zr1159     O1162   2.378       .  S
Zr1159     O1164   2.384       .  S
Zr1160     O1562   2.419       .  S
Zr1160     O1288   2.421   1_556  S
Zr1160     O1301   2.382   1_556  S
Zr1160     O1163   2.382       .  S
O1161     Zr1440   2.382       .  S
O1163     Zr1573   2.376       .  S
O1164     Zr1556   2.373   1_645  S
O1164      H1168   0.966       .  S
O1165     Zr1553   2.373   1_645  S
O1165      H1170   0.966       .  S
O1166     Zr1576   2.374       .  S
O1183     Zr1195   2.445       .  S
O1183      C1185   1.287       .  A
O1184     Zr1221   2.420       .  S
O1184      C1185   1.284       .  A
C1185      C1259   1.434       .  S
O1186     Zr1198   2.446       .  S
O1186      C1188   1.287       .  A
O1187     Zr1222   2.419       .  S
O1187      C1188   1.284       .  A
C1188      C1257   1.433       .  S
O1189     Zr1198   2.444       .  S
O1189      C1191   1.287       .  A
O1190     Zr1221   2.420       .  S
O1190      C1191   1.284       .  A
C1191      C1254   1.434       .  S
O1192     Zr1195   2.444       .  S
O1192      C1194   1.287       .  A
O1193     Zr1222   2.421       .  S
O1193      C1194   1.284       .  A
C1194      C1249   1.434       .  S
Zr1195     O1196   2.434       .  S
Zr1195     O1197   2.436       .  S
Zr1195     O1201   2.374       .  S
Zr1195     O1202   2.371       .  S
Zr1195     O1225   2.374       .  S
Zr1195     O1227   2.373       .  S
O1196      H1239   0.990       .  S
O1197      H1238   0.990       .  S
O1197      H1242   0.990       .  S
Zr1198     O1199   2.435       .  S
Zr1198     O1200   2.436       .  S
Zr1198     O1202   2.371       .  S
Zr1198     O1201   2.373       .  S
Zr1198     O1226   2.373       .  S
Zr1198     O1228   2.375       .  S
O1199      H1240   0.990       .  S
O1199      H1243   0.990       .  S
O1200      H1233   0.990       .  S
O1201     Zr1221   2.378       .  S
O1202     Zr1222   2.382       .  S
O1202      H1229   0.966       .  S
O1203     Zr1215   2.446       .  S
O1203      C1205   1.287       .  A
O1204     Zr1222   2.419       .  S
O1204      C1205   1.284       .  A
C1205      C1246   1.433       .  S
O1206     Zr1218   2.444       .  S
O1206      C1208   1.287       .  A
O1207     Zr1221   2.419       .  S
O1207      C1208   1.284       .  A
C1208      C1256   1.434       .  S
O1209     Zr1218   2.444       .  S
O1209      C1211   1.287       .  A
O1210     Zr1222   2.421       .  S
O1210      C1211   1.284       .  A
C1211      C1247   1.433       .  S
O1212     Zr1215   2.444       .  S
O1212      C1214   1.287       .  A
O1213     Zr1221   2.420       .  S
O1213      C1214   1.284       .  A
C1214      C1252   1.434       .  S
Zr1215     O1216   2.436       .  S
Zr1215     O1217   2.435       .  S
Zr1215     O1223   2.370       .  S
Zr1215     O1224   2.373       .  S
Zr1215     O1227   2.373       .  S
Zr1215     O1225   2.376       .  S
O1216      H1236   0.990       .  S
O1216      H1241   0.990       .  S
O1217      H1237   0.990       .  S
Zr1218     O1219   2.434       .  S
Zr1218     O1220   2.435       .  S
Zr1218     O1224   2.374       .  S
Zr1218     O1223   2.371       .  S
Zr1218     O1228   2.374       .  S
Zr1218     O1226   2.371       .  S
O1219      H1235   0.990       .  S
O1220      H1234   0.990       .  S
O1220      H1244   0.990       .  S
Zr1221     O1224   2.378       .  S
Zr1221     O1226   2.384       .  S
Zr1221     O1227   2.384       .  S
Zr1222     O1223   2.382       .  S
Zr1222     O1225   2.382       .  S
Zr1222     O1228   2.382       .  S
O1223      H1231   0.966       .  S
O1226      H1230   0.966       .  S
O1227      H1232   0.966       .  S
C1245      C1246   1.205       .  T
C1247      C1248   1.205       .  T
C1249      C1250   1.205       .  T
C1251      C1252   1.205       .  T
C1253      C1254   1.206       .  T
C1255      C1256   1.205       .  T
C1257      C1258   1.205       .  T
C1259      C1260   1.206       .  T
O1261     Zr1273   2.445   1_655  S
O1261      C1263   1.287       .  A
O1262      C1263   1.284       .  A
C1263      C1393   1.434       .  S
O1264      C1266   1.287       .  A
O1265     Zr1580   2.419   1_564  S
O1265      C1266   1.284       .  A
C1266      C1390   1.433       .  S
O1267     Zr1276   2.444   1_655  S
O1267      C1269   1.287       .  A
O1268      C1269   1.284       .  A
C1269      C1400   1.434       .  S
O1270      C1272   1.287       .  A
O1271     Zr1300   2.421   1_565  S
O1271      C1272   1.284       .  A
C1272      C1398   1.434       .  S
Zr1273     O1274   2.434       .  S
Zr1273     O1279   2.374   1_455  S
O1274      H1317   0.990   1_455  S
Zr1276     O1277   2.435       .  S
Zr1276     O1559   2.373   1_454  S
O1277      H1321   0.990       .  S
O1279     Zr1416   2.373   1_655  S
O1280     Zr1300   2.382   1_565  S
O1280      H1447   0.966       .  S
O1281     Zr1293   2.446       .  S
O1281      C1283   1.287       .  A
O1282      C1283   1.284       .  A
C1283      C1388   1.433       .  S
O1284      C1286   1.287       .  A
O1285     Zr1299   2.419   1_554  S
O1285      C1286   1.284       .  A
C1286      C1391   1.434       .  S
O1287     Zr1296   2.444       .  S
O1287      C1289   1.287       .  A
O1288      C1289   1.284       .  A
C1289      C1385   1.433       .  S
O1290      C1292   1.287       .  A
O1291     Zr1439   2.420       .  S
O1291      C1292   1.284       .  A
C1292      C1395   1.434       .  S
Zr1293     O1294   2.436       .  S
Zr1293     O1295   2.435       .  S
Zr1293     O1441   2.370       .  S
O1294      H1314   0.990       .  S
O1294      H1319   0.990       .  S
O1295      H1315   0.990       .  S
Zr1296     O1297   2.434       .  S
Zr1296     O1298   2.435       .  S
Zr1296     O1301   2.371       .  S
O1298      H1312   0.990       .  S
O1298      H1322   0.990       .  S
Zr1299     O1571   2.420       .  S
Zr1299     O1302   2.378   1_556  S
Zr1299     O1304   2.384   1_556  S
Zr1299     O1585   2.384       .  S
Zr1300     O1405   2.419   1_545  S
Zr1300     O1303   2.382       .  S
Zr1300     O1446   2.382       .  S
O1301     Zr1573   2.370   1_554  S
O1301      H1589   0.966       .  S
O1304      H1308   0.966       .  S
O1305     Zr1439   2.384       .  S
O1305      H1310   0.966       .  S
O1306     Zr1580   2.382   1_554  S
H1307      O1560   0.966       .  S
H1309      O1441   0.966       .  S
O1323     Zr1335   2.445       .  S
O1323      C1325   1.287       .  A
O1324     Zr1361   2.420       .  S
O1324      C1325   1.284       .  A
C1325      C1399   1.434       .  S
O1326     Zr1338   2.446       .  S
O1326      C1328   1.287       .  A
O1327     Zr1362   2.419       .  S
O1327      C1328   1.284       .  A
C1328      C1397   1.433       .  S
O1329     Zr1338   2.444       .  S
O1329      C1331   1.287       .  A
O1330     Zr1361   2.420       .  S
O1330      C1331   1.284       .  A
C1331      C1394   1.434       .  S
O1332     Zr1335   2.444       .  S
O1332      C1334   1.287       .  A
O1333     Zr1362   2.421       .  S
O1333      C1334   1.284       .  A
C1334      C1389   1.434       .  S
Zr1335     O1336   2.434       .  S
Zr1335     O1337   2.436       .  S
Zr1335     O1341   2.374       .  S
Zr1335     O1342   2.371       .  S
Zr1335     O1365   2.374       .  S
Zr1335     O1367   2.373       .  S
O1336      H1379   0.990       .  S
O1337      H1378   0.990       .  S
O1337      H1382   0.990       .  S
Zr1338     O1339   2.435       .  S
Zr1338     O1340   2.436       .  S
Zr1338     O1342   2.371       .  S
Zr1338     O1341   2.373       .  S
Zr1338     O1366   2.373       .  S
Zr1338     O1368   2.375       .  S
O1339      H1380   0.990       .  S
O1339      H1383   0.990       .  S
O1340      H1373   0.990       .  S
O1341     Zr1361   2.378       .  S
O1342     Zr1362   2.382       .  S
O1342      H1369   0.966       .  S
O1343     Zr1355   2.446       .  S
O1343      C1345   1.287       .  A
O1344     Zr1362   2.419       .  S
O1344      C1345   1.284       .  A
C1345      C1386   1.433       .  S
O1346     Zr1358   2.444       .  S
O1346      C1348   1.287       .  A
O1347     Zr1361   2.419       .  S
O1347      C1348   1.284       .  A
C1348      C1396   1.434       .  S
O1349     Zr1358   2.444       .  S
O1349      C1351   1.287       .  A
O1350     Zr1362   2.421       .  S
O1350      C1351   1.284       .  A
C1351      C1387   1.433       .  S
O1352     Zr1355   2.444       .  S
O1352      C1354   1.287       .  A
O1353     Zr1361   2.420       .  S
O1353      C1354   1.284       .  A
C1354      C1392   1.434       .  S
Zr1355     O1356   2.436       .  S
Zr1355     O1357   2.435       .  S
Zr1355     O1363   2.370       .  S
Zr1355     O1364   2.373       .  S
Zr1355     O1367   2.373       .  S
Zr1355     O1365   2.376       .  S
O1356      H1376   0.990       .  S
O1356      H1381   0.990       .  S
O1357      H1377   0.990       .  S
Zr1358     O1359   2.434       .  S
Zr1358     O1360   2.435       .  S
Zr1358     O1364   2.374       .  S
Zr1358     O1363   2.371       .  S
Zr1358     O1368   2.374       .  S
Zr1358     O1366   2.371       .  S
O1359      H1375   0.990       .  S
O1360      H1374   0.990       .  S
O1360      H1384   0.990       .  S
Zr1361     O1364   2.378       .  S
Zr1361     O1366   2.384       .  S
Zr1361     O1367   2.384       .  S
Zr1362     O1363   2.382       .  S
Zr1362     O1365   2.382       .  S
Zr1362     O1368   2.382       .  S
O1363      H1371   0.966       .  S
O1366      H1370   0.966       .  S
O1367      H1372   0.966       .  S
C1385      C1386   1.205       .  T
C1387      C1388   1.205       .  T
C1389      C1390   1.205       .  T
C1391      C1392   1.205       .  T
C1393      C1394   1.206       .  T
C1395      C1396   1.205       .  T
C1397      C1398   1.205       .  T
C1399      C1400   1.206       .  T
O1401     Zr1413   2.445   1_655  S
O1401      C1403   1.287       .  A
O1402      C1403   1.284       .  A
C1403      C1533   1.434       .  S
O1404      C1406   1.287       .  A
O1405      C1406   1.284       .  A
C1406      C1530   1.433       .  S
O1407     Zr1416   2.444   1_655  S
O1407      C1409   1.287       .  A
O1408      C1409   1.284       .  A
C1409      C1540   1.434       .  S
O1410      C1412   1.287       .  A
O1411     Zr1440   2.421   1_565  S
O1411      C1412   1.284       .  A
C1412      C1538   1.434       .  S
Zr1413     O1414   2.434       .  S
Zr1413     O1419   2.374   1_455  S
O1414      H1457   0.990   1_455  S
Zr1416     O1417   2.435       .  S
O1417      H1461   0.990       .  S
O1419     Zr1556   2.373   1_655  S
O1420     Zr1440   2.382   1_565  S
O1420      H1587   0.966       .  S
O1421     Zr1433   2.446       .  S
O1421      C1423   1.287       .  A
O1422      C1423   1.284       .  A
C1423      C1528   1.433       .  S
O1424      C1426   1.287       .  A
O1425     Zr1439   2.419       .  S
O1425      C1426   1.284       .  A
C1426      C1531   1.434       .  S
O1427     Zr1436   2.444       .  S
O1427      C1429   1.287       .  A
O1428      C1429   1.284       .  A
C1429      C1525   1.433       .  S
O1430      C1432   1.287       .  A
O1431     Zr1579   2.420       .  S
O1431      C1432   1.284       .  A
C1432      C1535   1.434       .  S
Zr1433     O1434   2.436       .  S
Zr1433     O1435   2.435       .  S
Zr1433     O1581   2.370       .  S
O1434      H1454   0.990       .  S
O1434      H1459   0.990       .  S
O1435      H1455   0.990       .  S
Zr1436     O1437   2.434       .  S
Zr1436     O1438   2.435       .  S
Zr1436     O1441   2.371       .  S
O1438      H1452   0.990       .  S
O1438      H1462   0.990       .  S
Zr1439     O1442   2.378       .  S
Zr1439     O1444   2.384       .  S
Zr1440     O1545   2.419   1_545  S
Zr1440     O1443   2.382       .  S
Zr1440     O1586   2.382       .  S
O1444      H1448   0.966       .  S
O1445     Zr1579   2.384       .  S
O1445      H1450   0.966       .  S
H1449      O1581   0.966       .  S
O1463     Zr1475   2.445       .  S
O1463      C1465   1.287       .  A
O1464     Zr1501   2.420       .  S
O1464      C1465   1.284       .  A
C1465      C1539   1.434       .  S
O1466     Zr1478   2.446       .  S
O1466      C1468   1.287       .  A
O1467     Zr1502   2.419       .  S
O1467      C1468   1.284       .  A
C1468      C1537   1.433       .  S
O1469     Zr1478   2.444       .  S
O1469      C1471   1.287       .  A
O1470     Zr1501   2.420       .  S
O1470      C1471   1.284       .  A
C1471      C1534   1.434       .  S
O1472     Zr1475   2.444       .  S
O1472      C1474   1.287       .  A
O1473     Zr1502   2.421       .  S
O1473      C1474   1.284       .  A
C1474      C1529   1.434       .  S
Zr1475     O1476   2.434       .  S
Zr1475     O1477   2.436       .  S
Zr1475     O1481   2.374       .  S
Zr1475     O1482   2.371       .  S
Zr1475     O1505   2.374       .  S
Zr1475     O1507   2.373       .  S
O1476      H1519   0.990       .  S
O1477      H1518   0.990       .  S
O1477      H1522   0.990       .  S
Zr1478     O1479   2.435       .  S
Zr1478     O1480   2.436       .  S
Zr1478     O1482   2.371       .  S
Zr1478     O1481   2.373       .  S
Zr1478     O1506   2.373       .  S
Zr1478     O1508   2.375       .  S
O1479      H1520   0.990       .  S
O1479      H1523   0.990       .  S
O1480      H1513   0.990       .  S
O1481     Zr1501   2.378       .  S
O1482     Zr1502   2.382       .  S
O1482      H1509   0.966       .  S
O1483     Zr1495   2.446       .  S
O1483      C1485   1.287       .  A
O1484     Zr1502   2.419       .  S
O1484      C1485   1.284       .  A
C1485      C1526   1.433       .  S
O1486     Zr1498   2.444       .  S
O1486      C1488   1.287       .  A
O1487     Zr1501   2.419       .  S
O1487      C1488   1.284       .  A
C1488      C1536   1.434       .  S
O1489     Zr1498   2.444       .  S
O1489      C1491   1.287       .  A
O1490     Zr1502   2.421       .  S
O1490      C1491   1.284       .  A
C1491      C1527   1.433       .  S
O1492     Zr1495   2.444       .  S
O1492      C1494   1.287       .  A
O1493     Zr1501   2.420       .  S
O1493      C1494   1.284       .  A
C1494      C1532   1.434       .  S
Zr1495     O1496   2.436       .  S
Zr1495     O1497   2.435       .  S
Zr1495     O1503   2.370       .  S
Zr1495     O1504   2.373       .  S
Zr1495     O1507   2.373       .  S
Zr1495     O1505   2.376       .  S
O1496      H1516   0.990       .  S
O1496      H1521   0.990       .  S
O1497      H1517   0.990       .  S
Zr1498     O1499   2.434       .  S
Zr1498     O1500   2.435       .  S
Zr1498     O1504   2.374       .  S
Zr1498     O1503   2.371       .  S
Zr1498     O1508   2.374       .  S
Zr1498     O1506   2.371       .  S
O1499      H1515   0.990       .  S
O1500      H1514   0.990       .  S
O1500      H1524   0.990       .  S
Zr1501     O1504   2.378       .  S
Zr1501     O1506   2.384       .  S
Zr1501     O1507   2.384       .  S
Zr1502     O1503   2.382       .  S
Zr1502     O1505   2.382       .  S
Zr1502     O1508   2.382       .  S
O1503      H1511   0.966       .  S
O1506      H1510   0.966       .  S
O1507      H1512   0.966       .  S
C1525      C1526   1.205       .  T
C1527      C1528   1.205       .  T
C1529      C1530   1.205       .  T
C1531      C1532   1.205       .  T
C1533      C1534   1.206       .  T
C1535      C1536   1.205       .  T
C1537      C1538   1.205       .  T
C1539      C1540   1.206       .  T
O1541     Zr1553   2.445   1_655  S
O1541      C1543   1.287       .  A
O1542      C1543   1.284       .  A
C1543      C1673   1.434       .  S
O1544      C1546   1.287       .  A
O1545      C1546   1.284       .  A
C1546      C1670   1.433       .  S
O1547     Zr1556   2.444   1_655  S
O1547      C1549   1.287       .  A
O1548      C1549   1.284       .  A
C1549      C1680   1.434       .  S
O1550      C1552   1.287       .  A
O1551     Zr1580   2.421   1_565  S
O1551      C1552   1.284       .  A
C1552      C1678   1.434       .  S
Zr1553     O1554   2.434       .  S
Zr1553     O1559   2.374   1_455  S
O1554      H1597   0.990   1_455  S
Zr1556     O1557   2.435       .  S
O1557      H1601   0.990       .  S
O1560     Zr1580   2.382   1_565  S
O1561     Zr1573   2.446       .  S
O1561      C1563   1.287       .  A
O1562      C1563   1.284       .  A
C1563      C1668   1.433       .  S
O1564      C1566   1.287       .  A
O1565     Zr1579   2.419       .  S
O1565      C1566   1.284       .  A
C1566      C1671   1.434       .  S
O1567     Zr1576   2.444       .  S
O1567      C1569   1.287       .  A
O1568      C1569   1.284       .  A
C1569      C1665   1.433       .  S
O1570      C1572   1.287       .  A
O1571      C1572   1.284       .  A
C1572      C1675   1.434       .  S
Zr1573     O1574   2.436       .  S
Zr1573     O1575   2.435       .  S
O1574      H1594   0.990       .  S
O1574      H1599   0.990       .  S
O1575      H1595   0.990       .  S
Zr1576     O1577   2.434       .  S
Zr1576     O1578   2.435       .  S
Zr1576     O1581   2.371       .  S
O1578      H1592   0.990       .  S
O1578      H1602   0.990       .  S
Zr1579     O1582   2.378       .  S
Zr1579     O1584   2.384       .  S
Zr1580     O1583   2.382       .  S
O1584      H1588   0.966       .  S
O1585      H1590   0.966       .  S
O1603     Zr1615   2.445       .  S
O1603      C1605   1.287       .  A
O1604     Zr1641   2.420       .  S
O1604      C1605   1.284       .  A
C1605      C1679   1.434       .  S
O1606     Zr1618   2.446       .  S
O1606      C1608   1.287       .  A
O1607     Zr1642   2.419       .  S
O1607      C1608   1.284       .  A
C1608      C1677   1.433       .  S
O1609     Zr1618   2.444       .  S
O1609      C1611   1.287       .  A
O1610     Zr1641   2.420       .  S
O1610      C1611   1.284       .  A
C1611      C1674   1.434       .  S
O1612     Zr1615   2.444       .  S
O1612      C1614   1.287       .  A
O1613     Zr1642   2.421       .  S
O1613      C1614   1.284       .  A
C1614      C1669   1.434       .  S
Zr1615     O1616   2.434       .  S
Zr1615     O1617   2.436       .  S
Zr1615     O1621   2.374       .  S
Zr1615     O1622   2.371       .  S
Zr1615     O1645   2.374       .  S
Zr1615     O1647   2.373       .  S
O1616      H1659   0.990       .  S
O1617      H1658   0.990       .  S
O1617      H1662   0.990       .  S
Zr1618     O1619   2.435       .  S
Zr1618     O1620   2.436       .  S
Zr1618     O1622   2.371       .  S
Zr1618     O1621   2.373       .  S
Zr1618     O1646   2.373       .  S
Zr1618     O1648   2.375       .  S
O1619      H1660   0.990       .  S
O1619      H1663   0.990       .  S
O1620      H1653   0.990       .  S
O1621     Zr1641   2.378       .  S
O1622     Zr1642   2.382       .  S
O1622      H1649   0.966       .  S
O1623     Zr1635   2.446       .  S
O1623      C1625   1.287       .  A
O1624     Zr1642   2.419       .  S
O1624      C1625   1.284       .  A
C1625      C1666   1.433       .  S
O1626     Zr1638   2.444       .  S
O1626      C1628   1.287       .  A
O1627     Zr1641   2.419       .  S
O1627      C1628   1.284       .  A
C1628      C1676   1.434       .  S
O1629     Zr1638   2.444       .  S
O1629      C1631   1.287       .  A
O1630     Zr1642   2.421       .  S
O1630      C1631   1.284       .  A
C1631      C1667   1.433       .  S
O1632     Zr1635   2.444       .  S
O1632      C1634   1.287       .  A
O1633     Zr1641   2.420       .  S
O1633      C1634   1.284       .  A
C1634      C1672   1.434       .  S
Zr1635     O1636   2.436       .  S
Zr1635     O1637   2.435       .  S
Zr1635     O1643   2.370       .  S
Zr1635     O1644   2.373       .  S
Zr1635     O1647   2.373       .  S
Zr1635     O1645   2.376       .  S
O1636      H1656   0.990       .  S
O1636      H1661   0.990       .  S
O1637      H1657   0.990       .  S
Zr1638     O1639   2.434       .  S
Zr1638     O1640   2.435       .  S
Zr1638     O1644   2.374       .  S
Zr1638     O1643   2.371       .  S
Zr1638     O1648   2.374       .  S
Zr1638     O1646   2.371       .  S
O1639      H1655   0.990       .  S
O1640      H1654   0.990       .  S
O1640      H1664   0.990       .  S
Zr1641     O1644   2.378       .  S
Zr1641     O1646   2.384       .  S
Zr1641     O1647   2.384       .  S
Zr1642     O1643   2.382       .  S
Zr1642     O1645   2.382       .  S
Zr1642     O1648   2.382       .  S
O1643      H1651   0.966       .  S
O1646      H1650   0.966       .  S
O1647      H1652   0.966       .  S
C1665      C1666   1.205       .  T
C1667      C1668   1.205       .  T
C1669      C1670   1.205       .  T
C1671      C1672   1.205       .  T
C1673      C1674   1.206       .  T
C1675      C1676   1.205       .  T
C1677      C1678   1.205       .  T
C1679      C1680   1.206       .  T
