geometry optimzed in LAMMPS
_audit_creation_date              2020-11-30 
_audit_creation_method            'lammps2cif' 
_symmetry_space_group_name_H-M    'P1' 
_symmetry_Int_Tables_number       1 
_symmetry_cell_setting            triclinic 
loop_ 
_symmetry_equiv_pos_as_xyz 
  x,y,z 
_cell_length_a                    49.70430056 
_cell_length_b                    49.58714746723027 
_cell_length_c                    36.27530737192385 
_cell_angle_alpha                 90.07001871413077 
_cell_angle_beta                  90.04781825518211 
_cell_angle_gamma                 89.84660261186494 
loop_ 
_atom_site_label 
_atom_site_type_symbol 
_atom_site_fract_x 
_atom_site_fract_y 
_atom_site_fract_z 
_atom_site_charge 
O1          O  0.81048940  0.10107235  0.82093932    -0.57200
C2          C  0.76337363  0.02847157  0.82720354     0.75400
O3          O  0.74347567  0.09694594  0.90168649    -0.58400
C4          C  0.80813142  0.12428264  0.83539401     0.75400
C5          C  0.72309401  0.11106035  0.79493814     0.77700
Cd6        Cd  0.76396022  0.08636837  0.84076857     1.37500
O7          O  0.78391398  0.04245092  0.81941122    -0.57200
O8          O  0.74562965  0.10386214  0.78185129    -0.56100
C9          C  0.76209642  0.08578579  0.92004276     0.77700
O10         O  0.71911664  0.10613112  0.82871071    -0.58400
O11         O  0.74282822  0.04137480  0.83791246    -0.56900
O12         O  0.78584341  0.12956602  0.85046135    -0.56900
O13         O  0.78063378  0.07446688  0.90189084    -0.56000
C14         C  0.58560226  0.15244155  0.63743030     0.87100
C15         C  0.58860750  0.16229184  0.59734469    -0.53200
C16         C  0.57106814  0.15016829  0.57338109     0.10000
C17         C  0.55253873  0.12925986  0.59175760     0.20900
C18         C  0.55568907  0.15717961  0.64689821    -0.53900
C19         C  0.53833034  0.14473245  0.62307340     0.10100
C20         C  0.58882006  0.12179304  0.63502231    -0.53400
C21         C  0.57174688  0.10954558  0.61109674     0.10700
H22         H  0.60309662  0.17737027  0.58877878     0.15200
H23         H  0.53879029  0.11919893  0.57206718     0.00900
H24         H  0.54894944  0.16863647  0.67069434     0.15500
H25         H  0.60351780  0.11080383  0.65135079     0.15300
O26         O  0.78957679  0.04443919  0.05726927    -0.57200
C27         C  0.81027797  0.12594229  0.04806980     0.75400
O28         O  0.74455072  0.09717806  0.97951501    -0.58400
C29         C  0.76874375  0.03017962  0.05259631     0.75400
C30         C  0.72414368  0.10945786  0.08478097     0.77700
Cd31       Cd  0.76680547  0.08767061  0.03948269     1.37500
O32         O  0.81104690  0.10396140  0.06585513    -0.57200
O33         O  0.74678524  0.10282585  0.09801660    -0.56100
C34         C  0.76288306  0.08627989  0.96037544     0.77700
O35         O  0.72097824  0.10597156  0.05051068    -0.58400
O36         O  0.78987762  0.12980307  0.02795673    -0.56900
O37         O  0.74728722  0.04264435  0.04481258    -0.56900
O38         O  0.78250034  0.07610201  0.97768921    -0.56000
C39         C  0.58686531  0.14634031  0.24970984     0.87100
C40         C  0.55756662  0.15401539  0.24036115    -0.53200
C41         C  0.53917810  0.14364542  0.26465193     0.10000
C42         C  0.55186002  0.12641658  0.29555470     0.20900
C43         C  0.59092138  0.15562964  0.28997393    -0.53900
C44         C  0.57248064  0.14523194  0.31406388     0.10100
C45         C  0.58692216  0.11566579  0.25155918    -0.53400
C46         C  0.56893197  0.10509967  0.27560090     0.10700
H47         H  0.55199432  0.16679798  0.21730703     0.15200
H48         H  0.53726263  0.11725600  0.31489105     0.00900
H49         H  0.60681364  0.16925415  0.29850996     0.15500
H50         H  0.60063867  0.10327346  0.23543197     0.15300
O51         O  0.78470923  0.98502919  0.82018509    -0.57200
C52         C  0.80855736  0.90203181  0.83586136     0.75400
O53         O  0.74323392  0.93521345  0.90307925    -0.58400
C54         C  0.76371457  0.99868072  0.82722577     0.75400
C55         C  0.72637132  0.91469898  0.79344009     0.77700
Cd56       Cd  0.76530717  0.94083527  0.84123775     1.37500
O57         O  0.81221222  0.92583495  0.82396950    -0.57200
O58         O  0.74854890  0.92317950  0.78078234    -0.56100
C59         C  0.76394584  0.94202554  0.92122104     0.77700
O60         O  0.72204931  0.91896942  0.82736521    -0.58400
O61         O  0.78546903  0.89671548  0.84837755    -0.56900
O62         O  0.74328422  0.98545996  0.83727126    -0.56900
O63         O  0.78442297  0.94843668  0.90263799    -0.56000
C64         C  0.58874461  0.87672603  0.63412344     0.87100
C65         C  0.55904784  0.87199164  0.64508640    -0.53200
C66         C  0.54095014  0.88480454  0.62239514     0.10000
C67         C  0.55440550  0.90062650  0.59074989     0.20900
C68         C  0.59055304  0.86741772  0.59369474    -0.53900
C69         C  0.57252048  0.87995142  0.57087494     0.10100
C70         C  0.59174666  0.90736595  0.63250641    -0.53400
C71         C  0.57412475  0.92000440  0.60964743     0.10700
H72         H  0.55299146  0.86019643  0.66884009     0.15200
H73         H  0.54022651  0.91097896  0.57194004     0.00900
H74         H  0.60493278  0.85248889  0.58406002     0.15500
H75         H  0.60694128  0.91805549  0.64827933     0.15300
O76         O  0.81446354  0.92695006  0.06620917    -0.57200
C77         C  0.76929517  0.00053873  0.05314027     0.75400
O78         O  0.74499310  0.93568930  0.98161330    -0.58400
C79         C  0.81269659  0.90421134  0.05027274     0.75400
C80         C  0.72909771  0.91867551  0.08941019     0.77700
Cd81       Cd  0.76918155  0.94266718  0.04157608     1.37500
O82         O  0.79075073  0.98702735  0.05730795    -0.57200
O83         O  0.75155689  0.92664425  0.10176238    -0.56100
C84         C  0.76484924  0.94232347  0.96177244     0.77700
O85         O  0.72488017  0.92235112  0.05538281    -0.58400
O86         O  0.74815985  0.98724802  0.04678290    -0.56900
O87         O  0.79154164  0.89999603  0.03184283    -0.56900
O88         O  0.78606620  0.94907543  0.97861721    -0.56000
C89         C  0.58971779  0.87583755  0.24694713     0.87100
C90         C  0.59251902  0.86574764  0.28708843    -0.53200
C91         C  0.57332382  0.87592779  0.31051459     0.10000
C92         C  0.55323586  0.89501235  0.29137066     0.20900
C93         C  0.56068487  0.86855990  0.23555128    -0.53900
C94         C  0.54160030  0.87856199  0.25914972     0.10100
C95         C  0.58973480  0.90651214  0.25021195    -0.53400
C96         C  0.57082889  0.91659040  0.27343024     0.10700
H97         H  0.60846121  0.85229608  0.29613642     0.15200
H98         H  0.53787133  0.90396157  0.30980935     0.00900
H99         H  0.55574638  0.85631199  0.21167994     0.15500
H100        H  0.60383164  0.91921083  0.23536412     0.15300
C101        C  0.30072334  0.15062684  0.62915575     0.87100
C102        C  0.33049608  0.15614429  0.63849109    -0.53200
C103        C  0.34816769  0.14406407  0.61463072     0.10000
C104        C  0.33431443  0.12814528  0.58336755     0.20900
C105        C  0.29727530  0.16028879  0.58904032    -0.53900
C106        C  0.31505441  0.14852205  0.56503959     0.10100
C107        C  0.29853355  0.11992895  0.62690457    -0.53400
C108        C  0.31574020  0.10802472  0.60277877     0.10700
H109        H  0.33692605  0.16759830  0.66242945     0.15200
H110        H  0.34827428  0.11828173  0.56372267     0.00900
H111        H  0.28221256  0.17487112  0.58043299     0.15500
H112        H  0.28412951  0.10862116  0.64319531     0.15300
O113        O  0.10120143  0.03862950  0.81499143    -0.57200
C114        C  0.07871036  0.12123218  0.82953149     0.75400
O115        O  0.14347434  0.09330164  0.89572283    -0.58400
C116        C  0.12179203  0.02460465  0.82285491     0.75400
C117        C  0.16480379  0.10528267  0.78847524     0.77700
Cd118      Cd  0.12255959  0.08263454  0.83474370     1.37500
O119        O  0.07690700  0.09888107  0.81260844    -0.57200
O120        O  0.14175126  0.09983765  0.77556523    -0.56100
C121        C  0.12499022  0.08235428  0.91444674     0.77700
O122        O  0.16856390  0.09967419  0.82210685    -0.58400
O123        O  0.10041094  0.12548007  0.84669336    -0.56900
O124        O  0.14243454  0.03746554  0.83293171    -0.56900
O125        O  0.10618483  0.07133110  0.89651509    -0.56000
C126        C  0.30196490  0.14485929  0.24191356     0.87100
C127        C  0.29773446  0.15242930  0.28272210    -0.53200
C128        C  0.31691204  0.14233106  0.30587052     0.10000
C129        C  0.33859474  0.12561701  0.28601082     0.20900
C130        C  0.33076917  0.15472415  0.23276892    -0.53900
C131        C  0.34997090  0.14460790  0.25637278     0.10100
C132        C  0.30420509  0.11412825  0.24139924    -0.53400
C133        C  0.32345457  0.10406783  0.26413378     0.10700
H134        H  0.28132059  0.16510980  0.29224059     0.15200
H135        H  0.35397732  0.11665328  0.30444231     0.00900
H136        H  0.33541318  0.16841311  0.21035122     0.15500
H137        H  0.29188331  0.10141790  0.22377281     0.15300
O138        O  0.07650555  0.10083696  0.05874967    -0.57200
C139        C  0.12110843  0.02627575  0.04782922     0.75400
O140        O  0.14259341  0.09439542  0.97391493    -0.58400
C141        C  0.07798792  0.12307055  0.04158680     0.75400
C142        C  0.16214660  0.10662488  0.08214260     0.77700
Cd143      Cd  0.12116144  0.08397983  0.03452912     1.37500
O144        O  0.09981411  0.03999536  0.05253980    -0.57200
O145        O  0.13917833  0.10035075  0.09446944    -0.56100
C146        C  0.12467410  0.08267853  0.95494377     0.77700
O147        O  0.16631366  0.10198394  0.04830441    -0.58400
O148        O  0.14211434  0.03934526  0.03993027    -0.56900
O149        O  0.09877410  0.12667382  0.02221593    -0.56900
O150        O  0.10585067  0.07148603  0.97259561    -0.56000
C151        C  0.30271700  0.87626852  0.63016075     0.87100
C152        C  0.29969510  0.86614589  0.59008902    -0.53200
C153        C  0.31731549  0.87798480  0.56599689     0.10000
C154        C  0.33610417  0.89873349  0.58436437     0.20900
C155        C  0.33260989  0.87132913  0.63986461    -0.53900
C156        C  0.35018576  0.88339169  0.61596534     0.10100
C157        C  0.29985822  0.90694308  0.62736582    -0.53400
C158        C  0.31707578  0.91878634  0.60330099     0.10700
H159        H  0.28489540  0.85133692  0.58156294     0.15200
H160        H  0.34999503  0.90865956  0.56484038     0.00900
H161        H  0.33916707  0.86021830  0.66403243     0.15500
H162        H  0.28521343  0.91824519  0.64339141     0.15300
O163        O  0.07616821  0.92211107  0.81677186    -0.57200
C164        C  0.12185641  0.99486072  0.82339654     0.75400
O165        O  0.14508591  0.92887857  0.89770241    -0.58400
C166        C  0.07838441  0.89893083  0.83123668     0.75400
C167        C  0.16493101  0.91365694  0.79180649     0.77700
Cd168      Cd  0.12261427  0.93704975  0.83708348     1.37500
O169        O  0.10152852  0.98068329  0.81517493    -0.57200
O170        O  0.14234904  0.92019548  0.77821477    -0.56100
C171        C  0.12593964  0.93861786  0.91651068     0.77700
O172        O  0.16810452  0.91825850  0.82582856    -0.58400
O173        O  0.14231947  0.98220093  0.83474344    -0.56900
O174        O  0.10063803  0.89364200  0.84650077    -0.56900
O175        O  0.10600090  0.94766798  0.89876858    -0.56000
C176        C  0.30470765  0.87555618  0.24091893     0.87100
C177        C  0.33348517  0.86532168  0.23246597    -0.53200
C178        C  0.35254230  0.87577248  0.25582197     0.10000
C179        C  0.34116376  0.89549278  0.28466182     0.20900
C180        C  0.30018505  0.86894530  0.28212509    -0.53900
C181        C  0.31932268  0.87947408  0.30515479     0.10100
C182        C  0.30699522  0.90622112  0.23937882    -0.53400
C183        C  0.32616231  0.91665900  0.26186511     0.10700
H184        H  0.33825032  0.85123476  0.21047760     0.15200
H185        H  0.35671122  0.90466711  0.30259192     0.00900
H186        H  0.28359323  0.85677636  0.29199928     0.15500
H187        H  0.29472418  0.91863135  0.22124454     0.15300
O188        O  0.10062746  0.98245893  0.05312291    -0.57200
C189        C  0.08018248  0.89961464  0.04434270     0.75400
O190        O  0.14545403  0.92981999  0.97583221    -0.58400
C191        C  0.12155616  0.99656246  0.04838006     0.75400
C192        C  0.16502296  0.91525901  0.08184364     0.77700
Cd193      Cd  0.12313032  0.93863170  0.03627642     1.37500
O194        O  0.07872198  0.92196751  0.06130614    -0.57200
O195        O  0.14249249  0.92209544  0.09528073    -0.56100
C196        C  0.12608747  0.93902981  0.95691118     0.77700
O197        O  0.16843578  0.91986302  0.04787481    -0.58400
O198        O  0.10096097  0.89576972  0.02498974    -0.56900
O199        O  0.14300264  0.98380804  0.04141714    -0.56900
O200        O  0.10619310  0.94829119  0.97454252    -0.56000
O201        O  0.97091862  0.86056047  0.82407196    -0.57200
C202        C  0.05648580  0.87890155  0.83199165     0.75400
O203        O  0.02484062  0.81616283  0.90142262    -0.58400
C204        C  0.95690844  0.84045881  0.83390514     0.75400
C205        C  0.03213160  0.79468976  0.79325353     0.77700
Cd206      Cd  0.01505444  0.83824999  0.84140806     1.37500
O207        O  0.03315633  0.88307854  0.81882104    -0.57200
O208        O  0.02538119  0.81754690  0.78063732    -0.56100
C209        C  0.01713251  0.83603112  0.92072546     0.77700
O210        O  0.03071659  0.79182071  0.82785642    -0.58400
O211        O  0.06027606  0.85638017  0.84740417    -0.56900
O212        O  0.96971617  0.81990897  0.84468064    -0.56900
O213        O  0.00870567  0.85652879  0.90348797    -0.56000
C214        C  0.07488342  0.65384687  0.63239089     0.87100
C215        C  0.08769633  0.62625117  0.64219953    -0.53200
C216        C  0.07950081  0.60573297  0.61933109     0.10000
C217        C  0.05926337  0.61472401  0.58957757     0.20900
C218        C  0.08172894  0.65816586  0.59130726    -0.53900
C219        C  0.07351685  0.63763252  0.56873834     0.10100
C220        C  0.04462328  0.64864857  0.63324839    -0.53400
C221        C  0.03644266  0.62817068  0.61112554     0.10700
H222        H  0.10192052  0.62331816  0.66456373     0.15200
H223        H  0.05185180  0.59800364  0.57208638     0.00900
H224        H  0.09243223  0.67572185  0.58130038     0.15500
H225        H  0.03081395  0.65998710  0.65062240     0.15300
O226        O  0.03658787  0.88202735  0.06165934    -0.57200
C227        C  0.96079664  0.83887601  0.05446274     0.75400
O228        O  0.02589312  0.81539702  0.97927055    -0.58400
C229        C  0.05909591  0.87881135  0.04569017     0.75400
C230        C  0.04084024  0.79314423  0.08552337     0.77700
Cd231      Cd  0.01878686  0.83673259  0.04067632     1.37500
O232        O  0.97563297  0.85820581  0.06496118    -0.57200
O233        O  0.03543173  0.81608617  0.09907138    -0.56100
C234        C  0.01776780  0.83566167  0.96114176     0.77700
O235        O  0.03576798  0.79010804  0.05158658    -0.58400
O236        O  0.97280373  0.81891304  0.04032199    -0.56900
O237        O  0.06276292  0.85651061  0.02957772    -0.56900
O238        O  0.01006576  0.85589088  0.97959227    -0.56000
C239        C  0.08005767  0.65331170  0.24610524     0.87100
C240        C  0.09278722  0.65520724  0.28494185    -0.53200
C241        C  0.08216085  0.63720990  0.30961631     0.10000
C242        C  0.06001937  0.61928715  0.29310947     0.20900
C243        C  0.08368237  0.62344247  0.23466397    -0.53900
C244        C  0.07293055  0.60554531  0.25937595     0.10100
C245        C  0.04983863  0.65672366  0.25284059    -0.53400
C246        C  0.03940923  0.63915940  0.27759902     0.10700
H247        H  0.10812999  0.66977583  0.29236791     0.15200
H248        H  0.05092569  0.60538991  0.31329749     0.00900
H249        H  0.09341967  0.61712706  0.20930894     0.15500
H250        H  0.03776560  0.67200392  0.23909678     0.15300
O251        O  0.85383641  0.88539119  0.82705491    -0.57200
C252        C  0.92728510  0.84060425  0.83506810     0.75400
O253        O  0.86310993  0.81627399  0.90766468    -0.58400
C254        C  0.82971315  0.88122673  0.83686826     0.75400
C255        C  0.85120417  0.79670052  0.79764648     0.77700
Cd256      Cd  0.86958616  0.83915235  0.84658706     1.37500
O257        O  0.91301484  0.86081831  0.82619288    -0.57200
O258        O  0.85925454  0.81917312  0.78536912    -0.56100
C259        C  0.86976935  0.83677107  0.92641847     0.77700
O260        O  0.85130988  0.79391438  0.83233871    -0.58400
O261        O  0.91483138  0.82023390  0.84696761    -0.56900
O262        O  0.82441376  0.85800236  0.84917807    -0.56900
O263        O  0.87575543  0.85773708  0.90850917    -0.56000
C264        C  0.81514751  0.65441054  0.63374945     0.87100
C265        C  0.80800006  0.65959715  0.59301155    -0.53200
C266        C  0.81468710  0.63884862  0.56986963     0.10000
C267        C  0.82785545  0.61481452  0.58977268     0.20900
C268        C  0.80094945  0.62759829  0.64337118    -0.53900
C269        C  0.80760837  0.60685506  0.61994005     0.10100
C270        C  0.84504832  0.64734649  0.63370212    -0.53400
C271        C  0.85172853  0.62660707  0.61099222     0.10700
H272        H  0.79821890  0.67789171  0.58350173     0.15200
H273        H  0.83404813  0.59789045  0.57169835     0.00900
H274        H  0.78714648  0.62525692  0.66630916     0.15500
H275        H  0.85973319  0.65775203  0.65074871     0.15300
O276        O  0.91738595  0.85957885  0.06682291    -0.57200
C277        C  0.83369272  0.88319734  0.05152834     0.75400
O278        O  0.86423981  0.81651317  0.98614026    -0.58400
C279        C  0.93103171  0.83944495  0.05587964     0.75400
C280        C  0.84844101  0.79821762  0.09279007     0.77700
Cd281      Cd  0.87248841  0.83957118  0.04645821     1.37500
O282        O  0.85577347  0.88534928  0.06896969    -0.57200
O283        O  0.85533870  0.82084356  0.10596396    -0.56100
C284        C  0.87072526  0.83679498  0.96691013     0.77700
O285        O  0.85311629  0.79455592  0.05889834    -0.58400
O286        O  0.83013885  0.86156062  0.03384882    -0.56900
O287        O  0.91770320  0.81969050  0.04375259    -0.56900
O288        O  0.87819962  0.85758636  0.98429816    -0.56000
C289        C  0.81130090  0.65589991  0.24767104     0.87100
C290        C  0.80727334  0.62599459  0.23664867    -0.53200
C291        C  0.81869633  0.60813767  0.26094718     0.10000
C292        C  0.83245308  0.62188167  0.29398487     0.20900
C293        C  0.79962307  0.65812682  0.28691734    -0.53900
C294        C  0.81073035  0.64010866  0.31112135     0.10100
C295        C  0.84167649  0.65906733  0.25291170    -0.53400
C296        C  0.85275274  0.64144068  0.27721388     0.10700
H297        H  0.79708937  0.61966763  0.21163138     0.15200
H298        H  0.84178912  0.60790843  0.31408822     0.00900
H299        H  0.78431708  0.67266064  0.29487621     0.15500
H300        H  0.85339477  0.67423243  0.23852368     0.15300
C301        C  0.07846316  0.36942585  0.63589125     0.87100
C302        C  0.08582151  0.36476439  0.59512375    -0.53200
C303        C  0.07779336  0.38501291  0.57199711     0.10000
C304        C  0.06334830  0.40825210  0.59205828     0.20900
C305        C  0.09105675  0.39711022  0.64569408    -0.53900
C306        C  0.08311867  0.41747755  0.62229870     0.10100
C307        C  0.04821633  0.37471595  0.63587090    -0.53400
C308        C  0.04029240  0.39504811  0.61329687     0.10700
H309        H  0.09647934  0.34696999  0.58554445     0.15200
H310        H  0.05611354  0.42472914  0.57395423     0.00900
H311        H  0.10477066  0.40025038  0.66858675     0.15500
H312        H  0.03419633  0.36355878  0.65301771     0.15300
O313        O  0.03397939  0.13827490  0.81634001    -0.57200
C314        C  0.95821798  0.18198983  0.83069562     0.75400
O315        O  0.02243575  0.20675713  0.89991159    -0.58400
C316        C  0.05701739  0.14154858  0.83080557     0.75400
C317        C  0.03675631  0.22513462  0.79141864     0.77700
Cd318      Cd  0.01631899  0.18314948  0.83978840     1.37500
O319        O  0.97196008  0.16128574  0.82221193    -0.57200
O320        O  0.02710354  0.20336465  0.77882087    -0.56100
C321        C  0.01609502  0.18659581  0.91943771     0.77700
O322        O  0.03663228  0.22775088  0.82612539    -0.58400
O323        O  0.97132549  0.20259790  0.84035875    -0.56900
O324        O  0.06072397  0.16343437  0.84790372    -0.56900
O325        O  0.01003039  0.16521137  0.90233826    -0.56000
C326        C  0.08075705  0.36648978  0.24845918     0.87100
C327        C  0.08538414  0.39656540  0.23867456    -0.53200
C328        C  0.07390413  0.41419673  0.26331197     0.10000
C329        C  0.05938665  0.40001436  0.29529621     0.20900
C330        C  0.09181507  0.36344376  0.28808745    -0.53900
C331        C  0.08064197  0.38134320  0.31255422     0.10100
C332        C  0.05027485  0.36373808  0.25262474    -0.53400
C333        C  0.03906417  0.38110098  0.27713473     0.10700
H334        H  0.09608921  0.40315016  0.21424910     0.15200
H335        H  0.04981330  0.41362800  0.31559044     0.00900
H336        H  0.10696256  0.34872207  0.29594237     0.15500
H337        H  0.03855879  0.34920964  0.23699232     0.15300
O338        O  0.03524111  0.14178054  0.06104733    -0.57200
C339        C  0.95949545  0.18655755  0.05325889     0.75400
O340        O  0.03567145  0.23254699  0.05327631    -0.58400
C341        C  0.05700050  0.14407381  0.04295939     0.75400
C342        C  0.01602480  0.18751489  0.95993732     0.77700
Cd343      Cd  0.01732540  0.18681053  0.03957700     1.37500
O344        O  0.97366662  0.16639752  0.06275760    -0.57200
O345        O  0.00917195  0.16713243  0.97857633    -0.56100
C346        C  0.04132177  0.22803180  0.08675228     0.77700
O347        O  0.02304152  0.20828314  0.97794010    -0.58400
O348        O  0.97212276  0.20644580  0.04023230    -0.56900
O349        O  0.06012063  0.16570297  0.02509105    -0.56900
O350        O  0.03564307  0.20474670  0.09869696    -0.56000
C351        C  0.81692809  0.37190595  0.63434388     0.87100
C352        C  0.80324166  0.39924979  0.64339131    -0.53200
C353        C  0.81112541  0.41979120  0.62039944     0.10000
C354        C  0.83193782  0.41109498  0.59126380     0.20900
C355        C  0.81076965  0.36705841  0.59315472    -0.53900
C356        C  0.81871066  0.38754674  0.57051687     0.10100
C357        C  0.84702830  0.37799797  0.63591601    -0.53400
C358        C  0.85486669  0.39844912  0.61351972     0.10700
H359        H  0.78869394  0.40199879  0.66538164     0.15200
H360        H  0.83902666  0.42779621  0.57350687     0.00900
H361        H  0.80069957  0.34915197  0.58300262     0.15500
H362        H  0.86101733  0.36697139  0.65337457     0.15300
O363        O  0.91381942  0.16272988  0.82289596    -0.57200
C364        C  0.82983495  0.14444607  0.83617528     0.75400
O365        O  0.86347734  0.20859643  0.90464904    -0.58400
C366        C  0.92855342  0.18252160  0.83189584     0.75400
C367        C  0.85099755  0.22837538  0.79573189     0.77700
Cd368      Cd  0.87072870  0.18564372  0.84401901     1.37500
O369        O  0.85305601  0.14047364  0.82266009    -0.57200
O370        O  0.85743058  0.20535250  0.78337120    -0.56100
C371        C  0.87100459  0.18865551  0.92389213     0.77700
O372        O  0.85393742  0.23184547  0.83007513    -0.58400
O373        O  0.82594136  0.16693549  0.85171679    -0.56900
O374        O  0.91652342  0.20314086  0.84408355    -0.56900
O375        O  0.87818708  0.16775462  0.90645721    -0.56000
C376        C  0.80824651  0.36950465  0.24681402     0.87100
C377        C  0.79858124  0.36701366  0.28700887    -0.53200
C378        C  0.81088513  0.38466514  0.31053374     0.10000
C379        C  0.83154338  0.40309771  0.29174195     0.20900
C380        C  0.80362866  0.39945187  0.23663864    -0.53900
C381        C  0.81618108  0.41714001  0.26017848     0.10100
C382        C  0.83882846  0.36630821  0.24910604    -0.53400
C383        C  0.85103562  0.38362749  0.27279129     0.10700
H384        H  0.78389816  0.35229229  0.29612618     0.15200
H385        H  0.84175606  0.41679954  0.31131312     0.00900
H386        H  0.79226665  0.40593709  0.21266678     0.15500
H387        H  0.84980493  0.35116086  0.23347506     0.15300
O388        O  0.85351351  0.14369818  0.06709502    -0.57200
C389        C  0.92977174  0.18697013  0.05440684     0.75400
O390        O  0.86413407  0.20985088  0.98278014    -0.58400
C391        C  0.83166023  0.14635881  0.04923246     0.75400
C392        C  0.84755589  0.22969907  0.09076978     0.77700
Cd393      Cd  0.87158364  0.18833045  0.04405566     1.37500
O394        O  0.91562273  0.16709435  0.06469372    -0.57200
O395        O  0.85576671  0.20744762  0.10377202    -0.56100
C396        C  0.87139306  0.18931101  0.96441747     0.77700
O397        O  0.85135446  0.23337169  0.05665123    -0.58400
O398        O  0.91702319  0.20730023  0.04263759    -0.56900
O399        O  0.82881172  0.16782174  0.03097584    -0.56900
O400        O  0.87899247  0.16897120  0.98270836    -0.56000
C401        C  0.80098774  0.30744720  0.19956629     0.20900
C402        C  0.80872873  0.28023040  0.19708406    -0.39000
C403        C  0.81652382  0.27117624  0.16203826     0.19900
C404        C  0.81628709  0.28787118  0.13152141     0.22500
C405        C  0.80863721  0.31515565  0.13400832    -0.39500
C406        C  0.80120720  0.32434042  0.16928405     0.21300
N407        N  0.79808277  0.32176652  0.23073901    -0.32800
C408        C  0.79731736  0.34820580  0.22095480    -0.10300
C409        C  0.79866645  0.35040179  0.18247631    -0.29100
N410        N  0.82677338  0.27505922  0.10207388    -0.45700
C411        C  0.83407928  0.25016580  0.11405674    -0.05000
C412        C  0.82783283  0.24695844  0.15128946    -0.22400
H413        H  0.81036673  0.26752419  0.22123048     0.19400
H414        H  0.81021068  0.32869420  0.11073287     0.18200
H415        H  0.80203013  0.36862564  0.16677655     0.14500
H416        H  0.83190713  0.22959625  0.16848535     0.14400
H417        H  0.80090380  0.31423433  0.25735335     0.32600
H418        H  0.82971341  0.28309499  0.07578427     0.35300
C419        C  0.80778116  0.37342625  0.47434181     0.20900
C420        C  0.80314593  0.35766183  0.44267910    -0.39000
C421        C  0.80430643  0.37148514  0.40886955     0.19900
C422        C  0.80977263  0.39880640  0.40700713     0.22500
C423        C  0.81440916  0.41444852  0.43850592    -0.39500
C424        C  0.81323683  0.40069676  0.47209393     0.21300
N425        N  0.80862548  0.36516363  0.50965665    -0.32800
C426        C  0.81482841  0.38737957  0.52992541    -0.10300
C427        C  0.81779647  0.40988194  0.50725772    -0.29100
N428        N  0.81137623  0.40701024  0.37190571    -0.45700
C429        C  0.80701064  0.38484655  0.35093401    -0.05000
C430        C  0.80225844  0.36224359  0.37299086    -0.22400
H431        H  0.79941004  0.33619895  0.44421009     0.19400
H432        H  0.81917598  0.43570206  0.43690975     0.18200
H433        H  0.82288416  0.43028294  0.51503432     0.14500
H434        H  0.79935054  0.34162749  0.36403618     0.14400
H435        H  0.80578602  0.34549673  0.51909870     0.32600
H436        H  0.81588597  0.42646751  0.36286494     0.35300
C437        C  0.81416284  0.32453454  0.70924363     0.20900
C438        C  0.81883135  0.31669520  0.74596207    -0.39000
C439        C  0.82609949  0.28955239  0.75137371     0.19900
C440        C  0.82857619  0.27154956  0.72239487     0.22500
C441        C  0.82393823  0.27937455  0.68570321    -0.39500
C442        C  0.81660306  0.30650222  0.68035287     0.21300
N443        N  0.81048550  0.34980367  0.69649966    -0.32800
C444        C  0.81050032  0.34810505  0.65911221    -0.10300
C445        C  0.81431916  0.32119195  0.64828099    -0.29100
N446        N  0.83737057  0.24741201  0.73449929    -0.45700
C447        C  0.84063559  0.25003393  0.77147583    -0.05000
C448        C  0.83367589  0.27602272  0.78301767    -0.22400
H449        H  0.81797729  0.33096574  0.76852863     0.19400
H450        H  0.82693757  0.26564231  0.66284344     0.18200
H451        H  0.81819004  0.31373064  0.62074167     0.14500
H452        H  0.83474270  0.28413746  0.81068793     0.14400
H453        H  0.81068466  0.36746370  0.71221473     0.32600
H454        H  0.84150784  0.23038294  0.71847520     0.35300
C455        C  0.92066680  0.39413235  0.29278867     0.20900
C456        C  0.94422020  0.40904860  0.29909045    -0.39000
C457        C  0.96844428  0.39473347  0.29488618     0.19900
C458        C  0.96897593  0.36769132  0.28533456     0.22500
C459        C  0.94555241  0.35279943  0.27943896    -0.39500
C460        C  0.92150286  0.36709453  0.28330713     0.21300
N461        N  0.89524686  0.40342490  0.29164933    -0.32800
C462        C  0.88006495  0.38217362  0.28075692    -0.10300
C463        C  0.89573519  0.35913471  0.27577670    -0.29100
N464        N  0.99419730  0.35928165  0.27950366    -0.45700
C465        C  0.01000367  0.38109775  0.28504848    -0.05000
C466        C  0.99474384  0.40355267  0.29529888    -0.22400
H467        H  0.94375317  0.43042069  0.30516383     0.19400
H468        H  0.94606213  0.33192872  0.27066604     0.18200
H469        H  0.88932912  0.33939910  0.26657587     0.14500
H470        H  0.00168361  0.42393021  0.29989160     0.14400
H471        H  0.88890424  0.42325345  0.29607405     0.32600
H472        H  0.00009896  0.34002395  0.27099988     0.35300
C473        C  0.06856630  0.28735268  0.12960074     0.20900
C474        C  0.07418761  0.31500214  0.13334420    -0.39000
C475        C  0.08348782  0.32337861  0.16815038     0.19900
C476        C  0.08687833  0.30557664  0.19706489     0.22500
C477        C  0.08121385  0.27790643  0.19332470    -0.39500
C478        C  0.07191760  0.26952493  0.15854889     0.21300
N479        N  0.05766161  0.27479641  0.10024356    -0.32800
C480        C  0.05386190  0.24878422  0.11056447    -0.10300
C481        C  0.06260654  0.24471900  0.14675718    -0.29100
N482        N  0.09127300  0.31907699  0.22871308    -0.45700
C483        C  0.09034835  0.34582706  0.22047877    -0.05000
C484        C  0.08592209  0.34904653  0.18255099    -0.22400
H485        H  0.07017592  0.32920887  0.11137435     0.19400
H486        H  0.08250969  0.26416453  0.21642153     0.18200
H487        H  0.06159663  0.22628023  0.16262471     0.14500
H488        H  0.08073384  0.36757946  0.16847839     0.14400
H489        H  0.05239904  0.28356489  0.07507143     0.32600
H490        H  0.09101802  0.31064076  0.25508332     0.35300
C491        C  0.97210379  0.41245370  0.59410939     0.20900
C492        C  0.94855146  0.41381165  0.57267887    -0.39000
C493        C  0.92424308  0.41381033  0.59248006     0.19900
C494        C  0.92364660  0.41250728  0.63063569     0.22500
C495        C  0.94703286  0.41142370  0.65191640    -0.39500
C496        C  0.97112771  0.41132238  0.63224071     0.21300
N497        N  0.99748766  0.40870438  0.58216655    -0.32800
C498        C  0.01233795  0.40467790  0.61303846    -0.10300
C499        C  0.99667789  0.40652934  0.64466686    -0.29100
N500        N  0.89853346  0.40881501  0.64279812    -0.45700
C501        C  0.88290858  0.40760713  0.61233671    -0.05000
C502        C  0.89802475  0.41117839  0.58034832    -0.22400
H503        H  0.94906548  0.41324712  0.54285969     0.19400
H504        H  0.94646228  0.40899657  0.68156186     0.18200
H505        H  0.00287365  0.40286211  0.67284262     0.14500
H506        H  0.89115929  0.40931599  0.55213709     0.14400
H507        H  0.00392059  0.40683398  0.55487836     0.32600
H508        H  0.89261834  0.40548757  0.67004710     0.35300
C509        C  0.08377003  0.39739493  0.47477996     0.20900
C510        C  0.08199221  0.41244752  0.44220398    -0.39000
C511        C  0.08641540  0.39807629  0.40947360     0.19900
C512        C  0.09218816  0.37075946  0.40898850     0.22500
C513        C  0.09412726  0.35570390  0.44172309    -0.39500
C514        C  0.08973461  0.37013745  0.47459128     0.21300
N515        N  0.07907641  0.40615890  0.50922589    -0.32800
C516        C  0.08214353  0.38438533  0.53145826    -0.10300
C517        C  0.08890696  0.36152949  0.51073116    -0.29100
N518        N  0.09294885  0.36143727  0.37406941    -0.45700
C519        C  0.08718725  0.38296671  0.35235428    -0.05000
C520        C  0.08348691  0.40618901  0.37353774    -0.22400
H521        H  0.07662357  0.43362017  0.44225372     0.19400
H522        H  0.09794323  0.33420658  0.44157209     0.18200
H523        H  0.09200465  0.34115945  0.52052430     0.14500
H524        H  0.07776221  0.42609841  0.36413023     0.14400
H525        H  0.07392204  0.42581372  0.51678620     0.32600
H526        H  0.09522197  0.34138743  0.36575139     0.35300
C527        C  0.06435709  0.28422028  0.74878173     0.20900
C528        C  0.07367079  0.31097857  0.74679930    -0.39000
C529        C  0.07917616  0.32079103  0.71121055     0.19900
C530        C  0.07566040  0.30506377  0.68012719     0.22500
C531        C  0.06610747  0.27843978  0.68205992    -0.39500
C532        C  0.06061780  0.26865451  0.71753487     0.21300
N533        N  0.05656973  0.27064143  0.77906621    -0.32800
C534        C  0.04766084  0.24631557  0.76700541    -0.10300
C535        C  0.04990990  0.24433477  0.72874343    -0.29100
N536        N  0.07897413  0.31987648  0.64952300    -0.45700
C537        C  0.08450900  0.34549259  0.66060165    -0.05000
C538        C  0.08481812  0.34667524  0.69920475    -0.22400
H539        H  0.07549872  0.32356495  0.77106132     0.19400
H540        H  0.06226568  0.26655246  0.65757617     0.18200
H541        H  0.04410538  0.22753246  0.71142998     0.14500
H542        H  0.08568300  0.36464386  0.71611513     0.14400
H543        H  0.05683884  0.27766831  0.80622405     0.32600
H544        H  0.07455679  0.31351443  0.62273884     0.35300
C545        C  0.80839857  0.53747708  0.24204770     0.20900
C546        C  0.79510762  0.51402227  0.22963595    -0.39000
C547        C  0.80637745  0.48926799  0.24122168     0.19900
C548        C  0.82906590  0.48825219  0.26327755     0.22500
C549        C  0.84230200  0.51147030  0.27540276    -0.39500
C550        C  0.83104903  0.53593860  0.26409217     0.21300
N551        N  0.80125199  0.56350327  0.23678595    -0.32800
C552        C  0.81941889  0.57837270  0.25610679    -0.10300
C553        C  0.83831938  0.56172268  0.27313947    -0.29100
N554        N  0.83537438  0.46277542  0.27193772    -0.45700
C555        C  0.81662946  0.44696367  0.25558217    -0.05000
C556        C  0.79822428  0.46279989  0.23577367    -0.22400
H557        H  0.77708031  0.51497058  0.21293603     0.19400
H558        H  0.85976313  0.51055062  0.29322357     0.18200
H559        H  0.85498302  0.56744899  0.29057541     0.14500
H560        H  0.78082832  0.45598339  0.22046547     0.14400
H561        H  0.78455393  0.57060357  0.22220576     0.32600
H562        H  0.85165014  0.45678990  0.28818334     0.35300
C563        C  0.82160672  0.73788315  0.13251121     0.20900
C564        C  0.81683689  0.71003023  0.13497683    -0.39000
C565        C  0.80787795  0.70064234  0.16934951     0.19900
C566        C  0.80396130  0.71771015  0.19901843     0.22500
C567        C  0.80885720  0.74558473  0.19659389    -0.39500
C568        C  0.81788878  0.75497522  0.16225733     0.21300
N569        N  0.83228665  0.75129193  0.10385785    -0.32800
C570        C  0.83574398  0.77706026  0.11548552    -0.10300
C571        C  0.82683672  0.78019409  0.15174684    -0.29100
N572        N  0.79991364  0.70341537  0.22998506    -0.45700
C573        C  0.80160324  0.67692106  0.22049558    -0.05000
C574        C  0.80622606  0.67461830  0.18253773    -0.22400
H575        H  0.82127663  0.69643822  0.11240341     0.19400
H576        H  0.80726349  0.75874100  0.22032786     0.18200
H577        H  0.82765563  0.79823528  0.16852766     0.14500
H578        H  0.81191715  0.65654544  0.16767951     0.14400
H579        H  0.83786596  0.74316757  0.07839231     0.32600
H580        H  0.79984188  0.71127179  0.25671876     0.35300
C581        C  0.79245595  0.53755270  0.60512921     0.20900
C582        C  0.79303130  0.51402628  0.58380271    -0.39000
C583        C  0.79414256  0.48976381  0.60335357     0.19900
C584        C  0.79450255  0.48872049  0.64145492     0.22500
C585        C  0.79392228  0.51246660  0.66298505    -0.39500
C586        C  0.79291430  0.53698756  0.64327335     0.21300
N587        N  0.79504234  0.56282121  0.59262980    -0.32800
C588        C  0.79764671  0.57878805  0.62270600    -0.10300
C589        C  0.79585259  0.56348706  0.65502133    -0.29100
N590        N  0.79850509  0.46309625  0.65296992    -0.45700
C591        C  0.80111163  0.44802221  0.62182609    -0.05000
C592        C  0.79822616  0.46403176  0.59053751    -0.22400
H593        H  0.79414868  0.51463442  0.55401070     0.19400
H594        H  0.79561121  0.51194466  0.69272072     0.18200
H595        H  0.79917612  0.57038073  0.68296879     0.14500
H596        H  0.80057115  0.45796795  0.56207424     0.14400
H597        H  0.79683546  0.56857631  0.56506223     0.32600
H598        H  0.80139321  0.45664014  0.68008294     0.35300
C599        C  0.80686375  0.62568472  0.47324841     0.20900
C600        C  0.80824875  0.61023484  0.44098074    -0.39000
C601        C  0.80445110  0.62438892  0.40803594     0.19900
C602        C  0.79947751  0.65185972  0.40712332     0.22500
C603        C  0.79800068  0.66734949  0.43955458    -0.39500
C604        C  0.80190105  0.65313984  0.47264314     0.21300
N605        N  0.81150808  0.61714864  0.50772419    -0.32800
C606        C  0.80960265  0.63927796  0.52956075    -0.10300
C607        C  0.80341924  0.66214315  0.50859161    -0.29100
N608        N  0.79904717  0.66081338  0.37210566    -0.45700
C609        C  0.80424004  0.63889853  0.35080541    -0.05000
C610        C  0.80735868  0.61581630  0.37227357    -0.22400
H611        H  0.81299712  0.58891872  0.44142330     0.19400
H612        H  0.79498879  0.68897024  0.43900461     0.18200
H613        H  0.80131617  0.68273971  0.51804908     0.14500
H614        H  0.81267058  0.59571079  0.36313690     0.14400
H615        H  0.81607692  0.59740254  0.51546050     0.32600
H616        H  0.79735917  0.68083056  0.36345316     0.35300
C617        C  0.83133092  0.75334772  0.72340893     0.20900
C618        C  0.82592994  0.74598580  0.68675534    -0.39000
C619        C  0.81825306  0.71904809  0.68114518     0.19900
C620        C  0.81648016  0.70071831  0.70969992     0.22500
C621        C  0.82209818  0.70802910  0.74635039    -0.39500
C622        C  0.82936828  0.73507577  0.75208229     0.21300
N623        N  0.83935937  0.77758893  0.73590983    -0.32800
C624        C  0.84234267  0.77481380  0.77288152    -0.10300
C625        C  0.83632605  0.74856296  0.78398215    -0.29100
N626        N  0.81165506  0.67578526  0.69660754    -0.45700
C627        C  0.81020669  0.67803945  0.65934113    -0.05000
C628        C  0.81430181  0.70492540  0.64890372    -0.22400
H629        H  0.82811399  0.76004116  0.66415353     0.19400
H630        H  0.82138510  0.69358620  0.76867050     0.18200
H631        H  0.83720962  0.74039239  0.81161035     0.14500
H632        H  0.81711643  0.71266325  0.62130166     0.14400
H633        H  0.84264960  0.79493828  0.72026357     0.32600
H634        H  0.81192293  0.65792212  0.71183109     0.35300
C635        C  0.06274950  0.53419353  0.26598431     0.20900
C636        C  0.05123894  0.51091036  0.28067462    -0.39000
C637        C  0.06260310  0.48655910  0.26919655     0.19900
C638        C  0.08382681  0.48511152  0.24469795     0.22500
C639        C  0.09551851  0.50867109  0.22982312    -0.39500
C640        C  0.08407322  0.53337748  0.24152162     0.21300
N641        N  0.05586402  0.55960723  0.27402035    -0.32800
C642        C  0.07290711  0.57568114  0.25503930    -0.10300
C643        C  0.09074552  0.56000946  0.23395351    -0.29100
N644        N  0.09079403  0.45907983  0.23874759    -0.45700
C645        C  0.07382636  0.44413907  0.25991687    -0.05000
C646        C  0.05605771  0.46080764  0.27910875    -0.22400
H647        H  0.03475183  0.51172919  0.30014019     0.19400
H648        H  0.11234910  0.50785299  0.21094623     0.18200
H649        H  0.10697959  0.56707189  0.21664939     0.14500
H650        H  0.04013435  0.45518515  0.29780074     0.14400
H651        H  0.04034155  0.56538571  0.29187772     0.32600
H652        H  0.10628287  0.45201264  0.22183433     0.35300
C653        C  0.97051029  0.65478094  0.29370227     0.20900
C654        C  0.94728645  0.67047212  0.28982163    -0.39000
C655        C  0.92300685  0.65649889  0.29230488     0.19900
C656        C  0.92179422  0.62901775  0.29877387     0.22500
C657        C  0.94511163  0.61331732  0.30319964    -0.39500
C658        C  0.96952719  0.62728671  0.30027766     0.21300
N659        N  0.99575862  0.66268034  0.28701880    -0.32800
C660        C  0.01099368  0.64005421  0.28885608    -0.10300
C661        C  0.99549316  0.61764432  0.29793957    -0.29100
N662        N  0.89632709  0.62021223  0.29600941    -0.45700
C663        C  0.88147681  0.64221885  0.28707331    -0.05000
C664        C  0.89738948  0.66523404  0.28500648    -0.22400
H665        H  0.94809457  0.69168967  0.28292571     0.19400
H666        H  0.94433244  0.59163489  0.30641810     0.18200
H667        H  0.00189961  0.59680761  0.29922315     0.14500
H668        H  0.89126960  0.68543152  0.27736703     0.14400
H669        H  0.00193838  0.68205334  0.27963617     0.32600
H670        H  0.88981313  0.60026247  0.29773699     0.35300
C671        C  0.06951106  0.75006077  0.15466775     0.20900
C672        C  0.07868697  0.74299484  0.18999470    -0.39000
C673        C  0.08498928  0.71564574  0.19534029     0.19900
C674        C  0.08200817  0.69664906  0.16775446     0.22500
C675        C  0.07298537  0.70375838  0.13223348    -0.39500
C676        C  0.06698387  0.73121250  0.12674137     0.21300
N677        N  0.06063733  0.77437915  0.14350129    -0.32800
C678        C  0.05251092  0.77117347  0.10807917    -0.10300
C679        C  0.05627403  0.74450138  0.09656199    -0.29100
N680        N  0.08451265  0.67158489  0.18163718    -0.45700
C681        C  0.08902165  0.67436687  0.21846257    -0.05000
C682        C  0.08989015  0.70180762  0.22759989    -0.22400
H683        H  0.07955754  0.75751193  0.21226629     0.19400
H684        H  0.06960120  0.68880157  0.11098404     0.18200
H685        H  0.05116332  0.73585906  0.07006071     0.14500
H686        H  0.08965305  0.71036232  0.25506455     0.14400
H687        H  0.05978728  0.79202545  0.15921855     0.32600
H688        H  0.07979429  0.65375500  0.16774595     0.35300
C689        C  0.09474126  0.53669386  0.64171923     0.20900
C690        C  0.09542515  0.51318601  0.66373201    -0.39000
C691        C  0.09585945  0.48837472  0.64447820     0.19900
C692        C  0.09562497  0.48738134  0.60635609     0.22500
C693        C  0.09494613  0.51064329  0.58458815    -0.39500
C694        C  0.09448208  0.53514850  0.60365022     0.21300
N695        N  0.09147502  0.56256956  0.65274840    -0.32800
C696        C  0.08873371  0.57726077  0.62130886    -0.10300
C697        C  0.09082342  0.56077097  0.59033942    -0.29100
N698        N  0.09321682  0.46194641  0.59434563    -0.45700
C699        C  0.09156163  0.44617063  0.62468767    -0.05000
C700        C  0.09358253  0.46189111  0.65672999    -0.22400
H701        H  0.09444902  0.51410907  0.69350843     0.19400
H702        H  0.09350813  0.50968613  0.55483465     0.18200
H703        H  0.08831988  0.56649877  0.56177543     0.14500
H704        H  0.09125742  0.45517977  0.68491900     0.14400
H705        H  0.08923448  0.56948504  0.67978104     0.32600
H706        H  0.09136428  0.45587526  0.56689273     0.35300
C707        C  0.91989230  0.61020963  0.62879302     0.20900
C708        C  0.94319772  0.61197277  0.65014865    -0.39000
C709        C  0.96735540  0.61179336  0.63065184     0.19900
C710        C  0.96847682  0.60949752  0.59262547     0.22500
C711        C  0.94499614  0.60743926  0.57111358    -0.39500
C712        C  0.92058803  0.60802536  0.59071073     0.21300
N713        N  0.89481929  0.61469922  0.64060572    -0.32800
C714        C  0.87929380  0.61583370  0.61003899    -0.10300
C715        C  0.89443006  0.61111280  0.57828523    -0.29100
N716        N  0.99382929  0.61326610  0.58066019    -0.45700
C717        C  0.00848552  0.61859767  0.61133800    -0.05000
C718        C  0.99274794  0.61750582  0.64295382    -0.22400
H719        H  0.94248158  0.61538014  0.67961869     0.19400
H720        H  0.94562391  0.60735578  0.54129006     0.18200
H721        H  0.88775728  0.61284586  0.54997429     0.14500
H722        H  0.99875411  0.62214177  0.67094426     0.14400
H723        H  0.88897081  0.61895680  0.66766160     0.32600
H724        H  0.00033410  0.61430422  0.55332537     0.35300
C725        C  0.08540293  0.62286391  0.40592376     0.20900
C726        C  0.07830761  0.60835518  0.43752626    -0.39000
C727        C  0.08030764  0.62238088  0.47087245     0.19900
C728        C  0.08896666  0.64879990  0.47286838     0.22500
C729        C  0.09609060  0.66342240  0.44107654    -0.39500
C730        C  0.09385151  0.64940233  0.40743362     0.21300
N731        N  0.08257026  0.61470428  0.37093768    -0.32800
C732        C  0.08860471  0.63625956  0.34955101    -0.10300
C733        C  0.09629804  0.65822161  0.37137350    -0.29100
N734        N  0.08799626  0.65772609  0.50793807    -0.45700
C735        C  0.07845122  0.63681044  0.52829196    -0.05000
C736        C  0.07350306  0.61446019  0.50588017    -0.22400
H737        H  0.07079871  0.58790671  0.43609955     0.19400
H738        H  0.10201199  0.68439013  0.44231918     0.18200
H739        H  0.10069151  0.67851136  0.36227706     0.14500
H740        H  0.06566175  0.59497513  0.51362525     0.14400
H741        H  0.07563512  0.59584069  0.36245387     0.32600
H742        H  0.09296618  0.67704392  0.51711263     0.35300
C743        C  0.05486063  0.75170000  0.72016448     0.20900
C744        C  0.06135361  0.74457751  0.68378819    -0.39000
C745        C  0.07142823  0.71835447  0.67870953     0.19900
C746        C  0.07449763  0.70041035  0.70752440     0.22500
C747        C  0.06791802  0.70753042  0.74399828    -0.39500
C748        C  0.05810345  0.73389452  0.74917581     0.21300
N749        N  0.04467429  0.77531374  0.73203761    -0.32800
C750        C  0.04158831  0.77270264  0.76898325    -0.10300
C751        C  0.04961174  0.74706734  0.78069595    -0.29100
N752        N  0.08056658  0.67563128  0.69467309    -0.45700
C753        C  0.08127024  0.67754083  0.65729433    -0.05000
C754        C  0.07591339  0.70418809  0.64664824    -0.22400
H755        H  0.05799610  0.75817911  0.66091590     0.19400
H756        H  0.06953619  0.69331869  0.76651674     0.18200
H757        H  0.04947732  0.73923661  0.80853287     0.14500
H758        H  0.07185846  0.71140788  0.61904791     0.14400
H759        H  0.04035901  0.79228610  0.71603887     0.32600
H760        H  0.08086883  0.65787687  0.71012412     0.35300
C761        C  0.20686713  0.88565739  0.15138004     0.20900
C762        C  0.21409978  0.87779982  0.18719585    -0.39000
C763        C  0.24125257  0.87090475  0.19243029     0.19900
C764        C  0.25988278  0.87182326  0.16420018     0.22500
C765        C  0.25260041  0.87956477  0.12823068    -0.39500
C766        C  0.22539942  0.88639576  0.12295232     0.21300
N767        N  0.18293801  0.89544416  0.14024617    -0.32800
C768        C  0.18620990  0.90252380  0.10445410    -0.10300
C769        C  0.21236878  0.89697072  0.09257835    -0.29100
N770        N  0.28499455  0.86902384  0.17766483    -0.45700
C771        C  0.28260390  0.86659969  0.21486511    -0.05000
C772        C  0.25536836  0.86734184  0.22473247    -0.22400
H773        H  0.19996048  0.87855994  0.20985427     0.19400
H774        H  0.26733285  0.88163444  0.10646714     0.18200
H775        H  0.22096703  0.90113397  0.06578631     0.14500
H776        H  0.24715389  0.86932512  0.25221577     0.14400
H777        H  0.16565904  0.89787725  0.15630231     0.32600
H778        H  0.30279267  0.87225475  0.16303675     0.35300
C779        C  0.33142977  0.87486918  0.46920178     0.20900
C780        C  0.34656036  0.87992865  0.43740497    -0.39000
C781        C  0.33306706  0.87642762  0.40386358     0.19900
C782        C  0.30652638  0.86831305  0.40186774     0.22500
C783        C  0.29129348  0.86316279  0.43386637    -0.39500
C784        C  0.30483556  0.86678113  0.46767612     0.21300
N785        N  0.33934586  0.87855269  0.50419239    -0.32800
C786        C  0.31770709  0.87301736  0.52557346    -0.10300
C787        C  0.29578110  0.86526035  0.50374728    -0.29100
N788        N  0.29820601  0.86767980  0.36646683    -0.45700
C789        C  0.31961211  0.87571200  0.34590382    -0.05000
C790        C  0.34168214  0.88120137  0.36850572    -0.22400
H791        H  0.36717073  0.88686551  0.43872225     0.19400
H792        H  0.27031792  0.85743839  0.43256385     0.18200
H793        H  0.27558253  0.86066189  0.51285433     0.14500
H794        H  0.36136625  0.88831980  0.36060264     0.14400
H795        H  0.35831038  0.88505573  0.51275733     0.32600
H796        H  0.27891834  0.86292799  0.35711295     0.35300
C797        C  0.20708130  0.88317952  0.72316903     0.20900
C798        C  0.21391972  0.87347318  0.68799494    -0.39000
C799        C  0.24135987  0.86814455  0.68202553     0.19900
C800        C  0.26054998  0.87225095  0.70902857     0.22500
C801        C  0.25367968  0.88182969  0.74432424    -0.39500
C802        C  0.22623475  0.88704042  0.75034829     0.21300
N803        N  0.18280550  0.89190717  0.73456263    -0.32800
C804        C  0.18645697  0.90131071  0.76931952    -0.10300
C805        C  0.21326848  0.89844415  0.78023359    -0.29100
N806        N  0.28541434  0.87065587  0.69455813    -0.45700
C807        C  0.28238308  0.86594355  0.65784104    -0.05000
C808        C  0.25495108  0.86375303  0.64941088    -0.22400
H809        H  0.19917338  0.87177049  0.66615027     0.19400
H810        H  0.26879450  0.88639502  0.76488882     0.18200
H811        H  0.22224090  0.90481777  0.80599872     0.14500
H812        H  0.24601354  0.86359242  0.62219807     0.14400
H813        H  0.16495620  0.89200579  0.71934394     0.32600
H814        H  0.30313906  0.87642970  0.70785842     0.35300
C815        C  0.34042554  0.98596260  0.27932185     0.20900
C816        C  0.34282949  0.00941512  0.30086063    -0.39000
C817        C  0.33954674  0.03387508  0.28185162     0.19900
C818        C  0.33439297  0.03469732  0.24432509     0.22500
C819        C  0.33240956  0.01142750  0.22282913    -0.39500
C820        C  0.33541362  0.98715987  0.24178756     0.21300
N821        N  0.33938485  0.96029805  0.29121958    -0.32800
C822        C  0.33308414  0.94543725  0.26106168    -0.10300
C823        C  0.33091250  0.96142979  0.22972038    -0.29100
N824        N  0.32900917  0.05986318  0.23337230    -0.45700
C825        C  0.33061119  0.07531252  0.26402951    -0.05000
C826        C  0.33762655  0.06000752  0.29481824    -0.22400
H827        H  0.34555142  0.00864588  0.33044610     0.19400
H828        H  0.32723504  0.01213500  0.19384782     0.18200
H829        H  0.32517470  0.95524635  0.20218959     0.14500
H830        H  0.33920673  0.06677851  0.32311030     0.14400
H831        H  0.34089624  0.95356612  0.31842334     0.32600
H832        H  0.32361607  0.06598546  0.20682103     0.35300
C833        C  0.20352286  0.13410956  0.15377571     0.20900
C834        C  0.21090615  0.14067747  0.19003798    -0.39000
C835        C  0.23781106  0.14846646  0.19515292     0.19900
C836        C  0.25607087  0.14949859  0.16646290     0.22500
C837        C  0.24861449  0.14307427  0.13013494    -0.39500
C838        C  0.22170366  0.13537020  0.12496106     0.21300
N839        N  0.17984785  0.12403651  0.14221352    -0.32800
C840        C  0.18301590  0.11879607  0.10576555    -0.10300
C841        C  0.20879553  0.12574514  0.09399269    -0.29100
N842        N  0.28125347  0.15272645  0.17944324    -0.45700
C843        C  0.27927524  0.15365888  0.21676611    -0.05000
C844        C  0.25223893  0.15133620  0.22726178    -0.22400
H845        H  0.19713882  0.13840264  0.21292714     0.19400
H846        H  0.26308935  0.14260801  0.10787054     0.18200
H847        H  0.21722983  0.12323719  0.06670372     0.14500
H848        H  0.24456985  0.14795101  0.25478149     0.14400
H849        H  0.16284428  0.12028085  0.15830406     0.32600
H850        H  0.29895557  0.15087334  0.16413384     0.35300
C851        C  0.32702571  0.03786740  0.58374000     0.20900
C852        C  0.34205877  0.01430629  0.57694016    -0.39000
C853        C  0.32860631  0.98986453  0.58355757     0.19900
C854        C  0.30224492  0.98911582  0.59576299     0.22500
C855        C  0.28718436  0.01250548  0.60200951    -0.39500
C856        C  0.30063627  0.03675783  0.59574578     0.21300
N857        N  0.33572510  0.06357749  0.58308876    -0.29600
C858        C  0.31474805  0.07869197  0.59536108    -0.10300
C859        C  0.29247292  0.06259463  0.60294153    -0.29100
N860        N  0.29469821  0.96380478  0.60315335    -0.45700
C861        C  0.31639668  0.94809090  0.59586859    -0.05000
C862        C  0.33786135  0.96358144  0.58301260    -0.22400
H863        H  0.36297010  0.01495219  0.56870781     0.19400
H864        H  0.26686906  0.01187971  0.61271220     0.18200
H865        H  0.27311055  0.06875161  0.61370693     0.14500
H866        H  0.35792939  0.95682144  0.57612787     0.14400
H867        H  0.35507636  0.07017921  0.57662391     0.32600
H868        H  0.27601146  0.95782066  0.61337341     0.35300
C869        C  0.32954595  0.15289196  0.46875409     0.20900
C870        C  0.34504635  0.14850574  0.43710530    -0.39000
C871        C  0.33122776  0.15021276  0.40359181     0.19900
C872        C  0.30409672  0.15624766  0.40149845     0.22500
C873        C  0.28852488  0.16080621  0.43328819    -0.39500
C874        C  0.30234138  0.15881573  0.46704713     0.21300
N875        N  0.33757760  0.14982855  0.50378128    -0.32800
C876        C  0.31539723  0.15361988  0.52484029    -0.10300
C877        C  0.29300845  0.15962555  0.50293304    -0.29100
N878        N  0.29553583  0.15495178  0.36632706    -0.45700
C879        C  0.31736499  0.14765299  0.34608307    -0.05000
C880        C  0.33994862  0.14463361  0.36852612    -0.22400
H881        H  0.36610932  0.14299601  0.43855420     0.19400
H882        H  0.26709152  0.16458376  0.43190652     0.18200
H883        H  0.27241559  0.16239560  0.51186313     0.14500
H884        H  0.35994386  0.13828705  0.36083429     0.14400
H885        H  0.35689859  0.14461063  0.51262585     0.32600
H886        H  0.27583752  0.15772055  0.35701144     0.35300
C887        C  0.20591098  0.13779942  0.72050599     0.20900
C888        C  0.21224602  0.14893852  0.68599832    -0.39000
C889        C  0.23932812  0.15600175  0.68060665     0.19900
C890        C  0.25864346  0.15225015  0.70755156     0.22500
C891        C  0.25228113  0.14115219  0.74212731    -0.39500
C892        C  0.22520770  0.13413400  0.74754371     0.21300
N893        N  0.18204469  0.12784258  0.73145758    -0.32800
C894        C  0.18609001  0.11785708  0.76582772    -0.10300
C895        C  0.21278968  0.12145994  0.77681938    -0.29100
N896        N  0.28341532  0.15552757  0.69339925    -0.45700
C897        C  0.28024779  0.16066859  0.65683169    -0.05000
C898        C  0.25274868  0.16182733  0.64833658    -0.22400
H899        H  0.19747911  0.15050254  0.66415443     0.19400
H900        H  0.26758720  0.13687707  0.76256024     0.18200
H901        H  0.22197605  0.11519654  0.80249231     0.14500
H902        H  0.24388893  0.16186748  0.62107224     0.14400
H903        H  0.16413786  0.12766723  0.71636828     0.32600
H904        H  0.30136265  0.15014814  0.70650990     0.35300
C905        C  0.47106744  0.86993478  0.27290011     0.20900
C906        C  0.44753729  0.86911211  0.29387988    -0.39000
C907        C  0.42355284  0.86791682  0.27391208     0.19900
C908        C  0.42276188  0.86768506  0.23579005     0.22500
C909        C  0.44654146  0.86851794  0.21459348    -0.39500
C910        C  0.47080909  0.86950737  0.23475297     0.21300
N911        N  0.49615702  0.87242046  0.28581872    -0.32800
C912        C  0.51236957  0.87357828  0.25593789    -0.10300
C913        C  0.49736344  0.87157572  0.22338036    -0.29100
N914        N  0.39702683  0.86850504  0.22383614    -0.45700
C915        C  0.38165483  0.86954175  0.25478780    -0.05000
C916        C  0.39757909  0.86893094  0.28632588    -0.22400
H917        H  0.44785487  0.87008609  0.32369259     0.19400
H918        H  0.44616399  0.86897389  0.18477203     0.18200
H919        H  0.50473206  0.87269686  0.19536379     0.14500
H920        H  0.39110430  0.87044589  0.31469008     0.14400
H921        H  0.50178725  0.87352254  0.31346494     0.32600
H922        H  0.39043958  0.87004991  0.19657484     0.35300
C923        C  0.65236421  0.87331521  0.19973187     0.20900
C924        C  0.67937872  0.88138902  0.19709122    -0.39000
C925        C  0.68818088  0.88897671  0.16186535     0.19900
C926        C  0.67136311  0.88846715  0.13146454     0.22500
C927        C  0.64430771  0.88051212  0.13411937    -0.39500
C928        C  0.63547421  0.87300987  0.16944861     0.21300
N929        N  0.63827116  0.86961656  0.23090021    -0.32800
C930        C  0.61200383  0.86734920  0.22096350    -0.10300
C931        C  0.60969548  0.86908488  0.18252104    -0.29100
N932        N  0.68395670  0.89852094  0.10169813    -0.45700
C933        C  0.70889216  0.90570521  0.11328131    -0.05000
C934        C  0.71232771  0.89992472  0.15063348    -0.22400
H935        H  0.69219284  0.88307558  0.22111957     0.19400
H936        H  0.63073992  0.88155625  0.11080649     0.18200
H937        H  0.59133375  0.87135046  0.16675820     0.14500
H938        H  0.72981947  0.90397326  0.16752796     0.14400
H939        H  0.64565081  0.87228233  0.25762617     0.32600
H940        H  0.67581108  0.90112322  0.07538253     0.35300
C941        C  0.42081222  0.87282250  0.63513433     0.20900
C942        C  0.44439586  0.85945305  0.64719700    -0.39000
C943        C  0.46899084  0.87230742  0.63869682     0.19900
C944        C  0.46969914  0.89654297  0.61988403     0.22500
C945        C  0.44635794  0.90976439  0.60803081    -0.39500
C946        C  0.42208529  0.89693546  0.61614965     0.21300
N947        N  0.39494304  0.86476424  0.63835623    -0.32800
C948        C  0.37993141  0.88385808  0.62080743    -0.10300
C949        C  0.39631410  0.90415523  0.60682542    -0.29100
N950        N  0.49507907  0.90415269  0.61326561    -0.45700
C951        C  0.51118040  0.88467744  0.62745889    -0.05000
C952        C  0.49560842  0.86450729  0.64412411    -0.22400
H953        H  0.44368585  0.84028173  0.66138452     0.19400
H954        H  0.44709026  0.92844841  0.59266711     0.18200
H955        H  0.39033216  0.92193959  0.59168160     0.14500
H956        H  0.50271179  0.84608622  0.65684176     0.14400
H957        H  0.38803057  0.84712368  0.65082993     0.32600
H958        H  0.50090543  0.92155628  0.59926380     0.35300
C959        C  0.58400264  0.86731943  0.47456118     0.20900
C960        C  0.59910805  0.86176856  0.44260578    -0.39000
C961        C  0.58549295  0.86516956  0.40890209     0.19900
C962        C  0.55892810  0.87343763  0.40738364     0.22500
C963        C  0.54389002  0.87902418  0.43920934    -0.39500
C964        C  0.55748311  0.87573672  0.47275464     0.21300
N965        N  0.59254343  0.86685796  0.50978336    -0.32800
C966        C  0.57136785  0.87531737  0.53047790    -0.10300
C967        C  0.54912997  0.88094916  0.50824633    -0.29100
N968        N  0.55102091  0.87689964  0.37234598    -0.45700
C969        C  0.57268757  0.87109003  0.35098698    -0.05000
C970        C  0.59456353  0.86334277  0.37290862    -0.22400
H971        H  0.62007743  0.85590584  0.44386850     0.19400
H972        H  0.52331858  0.88617906  0.43788996     0.18200
H973        H  0.52958375  0.88834078  0.51671184     0.14500
H974        H  0.61479136  0.85861441  0.36393930     0.14400
H975        H  0.61190575  0.86212115  0.51895780     0.32600
H976        H  0.53213228  0.88363369  0.36392205     0.35300
C977        C  0.68633617  0.88340298  0.72291638     0.20900
C978        C  0.67910064  0.87576192  0.68688697    -0.39000
C979        C  0.65195075  0.86863943  0.68162017     0.19900
C980        C  0.63340108  0.86931922  0.70998462     0.22500
C981        C  0.64072710  0.87663326  0.74601709    -0.39500
C982        C  0.66780246  0.88354182  0.75134799     0.21300
N983        N  0.70995178  0.89387861  0.73429861    -0.32800
C984        C  0.70629675  0.90072836  0.77022143    -0.10300
C985        C  0.68038204  0.89426692  0.78184114    -0.29100
N986        N  0.60819908  0.86727295  0.69670563    -0.45700
C987        C  0.61029786  0.86550154  0.65944585    -0.05000
C988        C  0.63755567  0.86569053  0.64935151    -0.22400
H989        H  0.69311079  0.87704229  0.66412829     0.19400
H990        H  0.62599997  0.87860208  0.76782285     0.18200
H991        H  0.67147699  0.89827460  0.80851243     0.14500
H992        H  0.64550896  0.86824797  0.62180942     0.14400
H993        H  0.72710692  0.89711454  0.71829731     0.32600
H994        H  0.59061831  0.87093221  0.71167717     0.35300
C995        C  0.46956959  0.15467771  0.24193053     0.20900
C996        C  0.44655029  0.15683240  0.21926550    -0.39000
C997        C  0.42155157  0.15534314  0.23756153     0.19900
C998        C  0.42001212  0.15210260  0.27536542     0.22500
C999        C  0.44277842  0.14987692  0.29777346    -0.39500
C1000       C  0.46745763  0.15116449  0.27962300     0.21300
N1001       N  0.49561391  0.15364926  0.23154222    -0.32800
C1002       C  0.50985622  0.14894968  0.26291707    -0.10300
C1003       C  0.49288345  0.14753292  0.29334202    -0.29100
N1004       N  0.39449877  0.14952549  0.28623352    -0.45700
C1005       C  0.37915949  0.15073952  0.25545516    -0.05000
C1006       C  0.39530126  0.15470705  0.22427791    -0.22400
H1007       H  0.44799347  0.15868941  0.18961449     0.19400
H1008       H  0.44133725  0.14642042  0.32717195     0.18200
H1009       H  0.49815717  0.14351597  0.32168802     0.14500
H1010       H  0.38890358  0.15531974  0.19577144     0.14400
H1011       H  0.50307548  0.15472414  0.20468066     0.32600
H1012       H  0.38814096  0.14637985  0.31325852     0.35300
C1013       C  0.55531275  0.03508974  0.28991786     0.20900
C1014       C  0.53989740  0.01135953  0.29200856    -0.39000
C1015       C  0.55450227  0.98706211  0.28951223     0.19900
C1016       C  0.58218829  0.98672005  0.28516449     0.22500
C1017       C  0.59744790  0.01019637  0.28316441    -0.39500
C1018       C  0.58297824  0.03420851  0.28564049     0.21300
N1019       N  0.54645855  0.06080281  0.28887608    -0.32800
C1020       C  0.56877992  0.07596327  0.28334175    -0.10300
C1021       C  0.59182542  0.06004817  0.28160726    -0.29100
N1022       N  0.59129240  0.96160167  0.28053686    -0.45700
C1023       C  0.56936487  0.94557225  0.28164844    -0.05000
C1024       C  0.54596678  0.96056398  0.28778998    -0.22400
H1025       H  0.51818666  0.01177748  0.29419327     0.19400
H1026       H  0.61897045  0.00979238  0.27860377     0.18200
H1027       H  0.61228617  0.06645867  0.27648215     0.14500
H1028       H  0.52547356  0.95326669  0.28854380     0.14400
H1029       H  0.52651659  0.06746876  0.28976577     0.32600
H1030       H  0.61123189  0.95585243  0.27581924     0.35300
C1031       C  0.68240293  0.13491546  0.15696922     0.20900
C1032       C  0.67584239  0.14173020  0.19334083    -0.39000
C1033       C  0.64909798  0.14947950  0.19945538     0.19900
C1034       C  0.63008475  0.14991107  0.17164969     0.22500
C1035       C  0.63667796  0.14309713  0.13504504    -0.39500
C1036       C  0.66364820  0.13574429  0.12876928     0.21300
N1037       N  0.70615024  0.12564239  0.14470678    -0.32800
C1038       C  0.70271643  0.12060873  0.10833274    -0.10300
C1039       C  0.67645782  0.12672621  0.09722456    -0.29100
N1040       N  0.60530672  0.15344349  0.18587444    -0.45700
C1041       C  0.60841756  0.15526487  0.22306288    -0.05000
C1042       C  0.63570620  0.15321278  0.23217429    -0.22400
H1043       H  0.69026305  0.14000097  0.21559570     0.19400
H1044       H  0.62168701  0.14245032  0.11340475     0.18200
H1045       H  0.66777848  0.12427024  0.07005439     0.14500
H1046       H  0.64417262  0.15043267  0.25941406     0.14400
H1047       H  0.72356421  0.12253239  0.16029366     0.32600
H1048       H  0.58719216  0.15121789  0.17159232     0.35300
C1049       C  0.46755395  0.13233722  0.61935923     0.20900
C1050       C  0.44453347  0.11871439  0.60758971    -0.39000
C1051       C  0.42007330  0.13134685  0.61539659     0.19900
C1052       C  0.41834184  0.15561637  0.63406916     0.22500
C1053       C  0.44159645  0.16933912  0.64618095    -0.39500
C1054       C  0.46636740  0.15670076  0.63794339     0.21300
N1055       N  0.49304240  0.12499764  0.61292516    -0.32800
C1056       C  0.50864828  0.14474754  0.62716230    -0.10300
C1057       C  0.49275074  0.16485554  0.64351357    -0.29100
N1058       N  0.39238272  0.16346514  0.63689817    -0.45700
C1059       C  0.37781652  0.14406231  0.61942796    -0.05000
C1060       C  0.39451221  0.12378902  0.60588432    -0.22400
H1061       H  0.44563569  0.09991949  0.59244898     0.19400
H1062       H  0.44052280  0.18861263  0.66014459     0.18200
H1063       H  0.49950610  0.18339287  0.65623716     0.14500
H1064       H  0.38884841  0.10579100  0.59096594     0.14400
H1065       H  0.49927189  0.10758310  0.59915736     0.32600
H1066       H  0.38513424  0.18113500  0.64909311     0.35300
C1067       C  0.56275917  0.99028297  0.59242525     0.20900
C1068       C  0.54759912  0.01370221  0.58553127    -0.39000
C1069       C  0.56073166  0.03820569  0.59269762     0.19900
C1070       C  0.58692003  0.03915806  0.60559946     0.22500
C1071       C  0.60212932  0.01586938  0.61206415    -0.39500
C1072       C  0.58898395  0.99150547  0.60513062     0.21300
N1073       N  0.55429042  0.96455619  0.59092671    -0.32800
C1074       C  0.57521128  0.94944297  0.60329355    -0.10300
C1075       C  0.59729481  0.96561892  0.61186705    -0.29100
N1076       N  0.59424610  0.06457957  0.61279167    -0.45700
C1077       C  0.57258344  0.08012639  0.60457316    -0.05000
C1078       C  0.55133820  0.06441197  0.59152186    -0.22400
H1079       H  0.52684146  0.01289320  0.57658078     0.19400
H1080       H  0.62234738  0.01664753  0.62313833     0.18200
H1081       H  0.61659431  0.95949269  0.62289414     0.14500
H1082       H  0.53136248  0.07102491  0.58384659     0.14400
H1083       H  0.53506326  0.95793354  0.58377466     0.32600
H1084       H  0.61282580  0.07075709  0.62321907     0.35300
C1085       C  0.55801437  0.15373371  0.41028087     0.20900
C1086       C  0.54239887  0.15157213  0.44229228    -0.39000
C1087       C  0.55609128  0.15548083  0.47562445     0.19900
C1088       C  0.58325775  0.16142296  0.47710644     0.22500
C1089       C  0.59887388  0.16387414  0.44491893    -0.39500
C1090       C  0.58515832  0.15976544  0.41142919     0.21300
N1091       N  0.55011023  0.14850708  0.37564108    -0.32800
C1092       C  0.57225843  0.15120722  0.35420461    -0.10300
C1093       C  0.59454426  0.15850650  0.37556774    -0.29100
N1094       N  0.59189093  0.16183004  0.51232767    -0.45700
C1095       C  0.57011292  0.15568080  0.53324507    -0.05000
C1096       C  0.54740028  0.15189402  0.51126062    -0.22400
H1097       H  0.52136350  0.14600852  0.44137305     0.19400
H1098       H  0.62030504  0.16760684  0.44593407     0.18200
H1099       H  0.61508324  0.16114615  0.36641381     0.14500
H1100       H  0.52743970  0.14602854  0.51998006     0.14400
H1101       H  0.53082850  0.14281772  0.36746186     0.32600
H1102       H  0.61167185  0.16441558  0.52136749     0.35300
C1103       C  0.66418436  0.14039292  0.75453431     0.20900
C1104       C  0.63662305  0.14619110  0.75129726    -0.39000
C1105       C  0.62819590  0.15638343  0.71706127     0.19900
C1106       C  0.64586259  0.16038325  0.68817799     0.22500
C1107       C  0.67346024  0.15460574  0.69146562    -0.39500
C1108       C  0.68188937  0.14441189  0.72566115     0.21300
N1109       N  0.67671471  0.12844847  0.78306767    -0.32800
C1110       C  0.70253120  0.12459022  0.77217215    -0.10300
C1111       C  0.70657518  0.13441204  0.73658162    -0.29100
N1112       N  0.63230204  0.16486582  0.65668715    -0.45700
C1113       C  0.60570011  0.16321868  0.66500565    -0.05000
C1114       C  0.60258055  0.15863246  0.70286723    -0.22400
H1115       H  0.62249932  0.14148018  0.77304198     0.19400
H1116       H  0.68706530  0.15624632  0.66829877     0.18200
H1117       H  0.72488896  0.13360644  0.72049396     0.14500
H1118       H  0.58427713  0.15270399  0.71679337     0.14400
H1119       H  0.66802638  0.12243996  0.80794268     0.32600
H1120       H  0.64070179  0.16472309  0.63030020     0.35300
loop_ 
_geom_bond_atom_site_label_1 
_geom_bond_atom_site_label_2 
_geom_bond_distance 
_geom_bond_site_symmetry_2 
_ccdc_geom_bond_type 
O1            C4   1.269       .  A
O1           Cd6   2.532       .  S
C2           O11   1.265       .  A
C2            O7   1.268       .  A
C2           C54   1.477   1_545  S
O3            C9   1.266       .  A
O3           Cd6   2.489       .  S
C4           O12   1.262       .  A
C4          C364   1.473       .  S
C5           O10   1.265       .  A
C5            O8   1.267       .  A
C5         C1110   1.474       .  S
Cd6          O13   2.439       .  S
Cd6          O12   2.430       .  S
Cd6          O11   2.471       .  S
Cd6           O7   2.512       .  S
Cd6          O10   2.471       .  S
Cd6           O8   2.479       .  S
C9           O13   1.263       .  A
C9           C34   1.464       .  S
C14          C15   1.542       .  S
C14          C20   1.530       .  S
C14          C18   1.544       .  S
C14        C1113   1.511       .  S
C15          H22   1.085       .  S
C15          C16   1.370       .  D
C16          C17   1.541       .  S
C16        C1095   1.482       .  S
C17          C21   1.535       .  S
C17          C19   1.541       .  S
C17          H23   1.107       .  S
C18          H24   1.086       .  S
C18          C19   1.368       .  D
C19        C1056   1.483       .  S
C20          H25   1.086       .  S
C20          C21   1.357       .  D
C21        C1077   1.478       .  S
O26          C29   1.267       .  A
O26         Cd31   2.506       .  S
C27          O36   1.263       .  A
C27          O32   1.268       .  A
C27         C391   1.470       .  S
O28          C34   1.266       .  A
O28         Cd31   2.485   1_556  S
C29          O37   1.263       .  A
C29          C77   1.470       .  S
C30          O35   1.265       .  A
C30          O33   1.266       .  A
C30        C1038   1.472       .  S
Cd31         O38   2.441   1_554  S
Cd31         O37   2.445       .  S
Cd31         O36   2.423       .  S
Cd31         O32   2.531       .  S
Cd31         O35   2.482       .  S
Cd31         O33   2.462       .  S
C34          O38   1.264       .  A
C39          C40   1.542       .  S
C39          C45   1.523       .  S
C39          C43   1.544       .  S
C39        C1041   1.511       .  S
C40          H47   1.085       .  S
C40          C41   1.372       .  D
C41          C42   1.543       .  S
C41        C1002   1.482       .  S
C42          C46   1.535       .  S
C42          C44   1.541       .  S
C42          H48   1.108       .  S
C43          H49   1.085       .  S
C43          C44   1.369       .  D
C44        C1092   1.486       .  S
C45          H50   1.087       .  S
C45          C46   1.356       .  D
C46        C1020   1.472       .  S
O51          C54   1.268       .  A
O51         Cd56   2.516       .  S
C52          O61   1.263       .  A
C52          O57   1.271       .  A
C52         C254   1.472       .  S
O53          C59   1.268       .  A
O53         Cd56   2.514       .  S
C54          O62   1.264       .  A
C55          O60   1.267       .  A
C55          O58   1.268       .  A
C55         C984   1.478       .  S
Cd56         O63   2.450       .  S
Cd56         O62   2.470       .  S
Cd56         O61   2.418       .  S
Cd56         O57   2.524       .  S
Cd56         O60   2.462       .  S
Cd56         O58   2.503       .  S
C59          O63   1.263       .  A
C59          C84   1.472       .  S
C64          C65   1.548       .  S
C64          C70   1.528       .  S
C64          C68   1.540       .  S
C64         C987   1.516       .  S
C65          H72   1.085       .  S
C65          C66   1.374       .  D
C66          C67   1.545       .  S
C66         C951   1.491       .  S
C67          C71   1.535       .  S
C67          C69   1.541       .  S
C67          H73   1.106       .  S
C68          H74   1.085       .  S
C68          C69   1.368       .  D
C69         C966   1.484       .  S
C70          H75   1.086       .  S
C70          C71   1.358       .  D
C71        C1074   1.479       .  S
O76          C79   1.270       .  A
O76         Cd81   2.542       .  S
C77          O86   1.263   1_545  A
C77          O82   1.267   1_545  A
O78          C84   1.266       .  A
O78         Cd81   2.508   1_556  S
C79          O87   1.263       .  A
C79         C277   1.473       .  S
C80          O85   1.265       .  A
C80          O83   1.267       .  A
C80         C933   1.476       .  S
Cd81         O88   2.455   1_554  S
Cd81         O87   2.413       .  S
Cd81         O86   2.450       .  S
Cd81         O82   2.514       .  S
Cd81         O85   2.476       .  S
Cd81         O83   2.485       .  S
C84          O88   1.264       .  A
C89          C90   1.546       .  S
C89          C95   1.526       .  S
C89          C93   1.544       .  S
C89         C930   1.514       .  S
C90          H97   1.085       .  S
C90          C91   1.373       .  D
C91          C92   1.540       .  S
C91         C969   1.488       .  S
C92          C96   1.530       .  S
C92          C94   1.538       .  S
C92          H98   1.107       .  S
C93          H99   1.085       .  S
C93          C94   1.370       .  D
C94         C912   1.479       .  S
C95         H100   1.087       .  S
C95          C96   1.356       .  D
C96        C1023   1.469       .  S
C101        C102   1.543       .  S
C101        C107   1.528       .  S
C101        C105   1.542       .  S
C101        C897   1.513       .  S
C102        H109   1.085       .  S
C102        C103   1.370       .  D
C103        C104   1.544       .  S
C103       C1059   1.484       .  S
C104        C108   1.533       .  S
C104        C106   1.541       .  S
C104        H110   1.108       .  S
C105        H111   1.085       .  S
C105        C106   1.370       .  D
C106        C876   1.480       .  S
C107        H112   1.086       .  S
C107        C108   1.358       .  D
C108        C858   1.480       .  S
O113        C116   1.268       .  A
O113       Cd118   2.532       .  S
C114        O123   1.263       .  A
C114        O119   1.270       .  A
C114        C316   1.474       .  S
O115        C121   1.267       .  A
O115       Cd118   2.500       .  S
C116        O124   1.263       .  A
C116        C164   1.475   1_545  S
C117        O122   1.265       .  A
C117        O120   1.267       .  A
C117        C894   1.480       .  S
Cd118       O125   2.451       .  S
Cd118       O124   2.446       .  S
Cd118       O123   2.429       .  S
Cd118       O119   2.536       .  S
Cd118       O122   2.483       .  S
Cd118       O120   2.502       .  S
C121        O125   1.263       .  A
C121        C146   1.469       .  S
C126        C127   1.541       .  S
C126        C132   1.528       .  S
C126        C130   1.550       .  S
C126        C843   1.514       .  S
C127        H134   1.085       .  S
C127        C128   1.364       .  D
C128        C129   1.537       .  S
C128        C879   1.482       .  S
C129        C133   1.529       .  S
C129        C131   1.539       .  S
C129        H135   1.108       .  S
C130        H136   1.085       .  S
C130        C131   1.376       .  D
C131       C1005   1.484       .  S
C132        H137   1.087       .  S
C132        C133   1.357       .  D
C133        C825   1.469       .  S
O138        C141   1.269       .  A
O138       Cd143   2.528       .  S
C139        O148   1.264       .  A
C139        O144   1.268       .  A
C139        C191   1.474   1_545  S
O140        C146   1.267       .  A
O140       Cd143   2.499   1_556  S
C141        O149   1.263       .  A
C141        C341   1.473       .  S
C142        O147   1.266       .  A
C142        O145   1.266       .  A
C142        C840   1.475       .  S
Cd143       O150   2.451   1_554  S
Cd143       O149   2.431       .  S
Cd143       O148   2.452       .  S
Cd143       O144   2.515       .  S
Cd143       O147   2.468       .  S
Cd143       O145   2.487       .  S
C146        O150   1.264       .  A
C151        C152   1.545       .  S
C151        C157   1.531       .  S
C151        C155   1.546       .  S
C151        C807   1.516       .  S
C152        H159   1.085       .  S
C152        C153   1.371       .  D
C153        C154   1.542       .  S
C153        C786   1.487       .  S
C154        C158   1.533       .  S
C154        C156   1.543       .  S
C154        H160   1.106       .  S
C155        H161   1.085       .  S
C155        C156   1.370       .  D
C156        C948   1.489       .  S
C157        H162   1.086       .  S
C157        C158   1.358       .  D
C158        C861   1.479       .  S
O163        C166   1.269       .  A
O163       Cd168   2.535       .  S
C164        O173   1.263       .  A
C164        O169   1.268       .  A
O165        C171   1.266       .  A
O165       Cd168   2.499       .  S
C166        O174   1.264       .  A
C166        C202   1.476       .  S
C167        O172   1.265       .  A
C167        O170   1.267       .  A
C167        C804   1.477       .  S
Cd168       O175   2.442       .  S
Cd168       O174   2.441       .  S
Cd168       O173   2.448       .  S
Cd168       O169   2.530       .  S
Cd168       O172   2.477       .  S
Cd168       O170   2.493       .  S
C171        O175   1.263       .  A
C171        C196   1.466       .  S
C176        C177   1.547       .  S
C176        C182   1.526       .  S
C176        C180   1.547       .  S
C176        C771   1.516       .  S
C177        H184   1.086       .  S
C177        C178   1.373       .  D
C178        C179   1.538       .  S
C178        C915   1.479       .  S
C179        C183   1.529       .  S
C179        C181   1.539       .  S
C179        H185   1.108       .  S
C180        H186   1.085       .  S
C180        C181   1.370       .  D
C181        C789   1.490       .  S
C182        H187   1.087       .  S
C182        C183   1.357       .  D
C183        C822   1.469       .  S
O188        C191   1.267       .  A
O188       Cd193   2.516       .  S
C189        O198   1.263       .  A
C189        O194   1.269       .  A
C189        C229   1.473       .  S
O190        C196   1.266       .  A
O190       Cd193   2.496   1_556  S
C191        O199   1.264       .  A
C192        O197   1.265       .  A
C192        O195   1.267       .  A
C192        C768   1.475       .  S
Cd193       O200   2.439   1_554  S
Cd193       O199   2.457       .  S
Cd193       O198   2.431       .  S
Cd193       O194   2.529       .  S
Cd193       O197   2.470       .  S
Cd193       O195   2.485       .  S
C196        O200   1.263       .  A
O201        C204   1.269       .  A
O201       Cd206   2.533   1_655  S
C202        O211   1.263       .  A
C202        O207   1.270       .  A
O203        C209   1.267       .  A
O203       Cd206   2.485       .  S
C204        O212   1.262       .  A
C204        C252   1.473       .  S
C205        O210   1.265       .  A
C205        O208   1.267       .  A
C205        C750   1.477       .  S
Cd206       O213   2.447       .  S
Cd206       O212   2.435   1_455  S
Cd206       O211   2.433       .  S
Cd206       O207   2.537       .  S
Cd206       O210   2.477       .  S
Cd206       O208   2.484       .  S
C209        O213   1.264       .  A
C209        C234   1.467       .  S
C214        C215   1.549       .  S
C214        C220   1.527       .  S
C214        C218   1.544       .  S
C214        C753   1.515       .  S
C215        H222   1.085       .  S
C215        C216   1.374       .  D
C216        C217   1.540       .  S
C216        C696   1.485       .  S
C217        C221   1.529       .  S
C217        C219   1.540       .  S
C217        H223   1.107       .  S
C218        H224   1.085       .  S
C218        C219   1.369       .  D
C219        C735   1.488       .  S
C220        H225   1.087       .  S
C220        C221   1.357       .  D
C221        C717   1.470       .  S
O226        C229   1.270       .  A
O226       Cd231   2.532       .  S
C227        O236   1.263       .  A
C227        O232   1.269       .  A
C227        C279   1.481       .  S
O228        C234   1.267       .  A
O228       Cd231   2.490   1_556  S
C229        O237   1.263       .  A
C230        O235   1.265       .  A
C230        O233   1.267       .  A
C230        C678   1.480       .  S
Cd231       O238   2.450   1_554  S
Cd231       O237   2.432       .  S
Cd231       O236   2.453   1_455  S
Cd231       O232   2.549   1_455  S
Cd231       O235   2.491       .  S
Cd231       O233   2.494       .  S
C234        O238   1.264       .  A
C239        C240   1.547       .  S
C239        C245   1.531       .  S
C239        C243   1.548       .  S
C239        C681   1.517       .  S
C240        H247   1.085       .  S
C240        C241   1.372       .  D
C241        C242   1.537       .  S
C241        C732   1.484       .  S
C242        C246   1.527       .  S
C242        C244   1.540       .  S
C242        H248   1.104       .  S
C243        H249   1.085       .  S
C243        C244   1.372       .  D
C244        C642   1.489       .  S
C245        H250   1.087       .  S
C245        C246   1.356       .  D
C246        C660   1.471       .  S
O251        C254   1.269       .  A
O251       Cd256   2.523       .  S
C252        O261   1.263       .  A
C252        O257   1.268       .  A
O253        C259   1.267       .  A
O253       Cd256   2.512       .  S
C254        O262   1.264       .  A
C255        O260   1.266       .  A
C255        O258   1.267       .  A
C255        C624   1.476       .  S
Cd256       O263   2.446       .  S
Cd256       O262   2.432       .  S
Cd256       O261   2.434       .  S
Cd256       O257   2.525       .  S
Cd256       O260   2.476       .  S
Cd256       O258   2.484       .  S
C259        O263   1.263       .  A
C259        C284   1.470       .  S
C264        C265   1.541       .  S
C264        C270   1.526       .  S
C264        C268   1.547       .  S
C264        C627   1.514       .  S
C265        H272   1.085       .  S
C265        C266   1.368       .  D
C266        C267   1.539       .  S
C266        C606   1.484       .  S
C267        C271   1.531       .  S
C267        C269   1.540       .  S
C267        H273   1.107       .  S
C268        H274   1.085       .  S
C268        C269   1.374       .  D
C269        C588   1.482       .  S
C270        H275   1.087       .  S
C270        C271   1.358       .  D
C271        C714   1.470       .  S
O276        C279   1.269       .  A
O276       Cd281   2.553       .  S
C277        O286   1.262       .  A
C277        O282   1.271       .  A
O278        C284   1.267       .  A
O278       Cd281   2.502   1_556  S
C279        O287   1.262       .  A
C280        O285   1.264       .  A
C280        O283   1.267       .  A
C280        C570   1.478       .  S
Cd281       O288   2.443   1_554  S
Cd281       O287   2.454       .  S
Cd281       O286   2.412       .  S
Cd281       O282   2.549       .  S
Cd281       O285   2.475       .  S
Cd281       O283   2.502       .  S
C284        O288   1.264       .  A
C289        C290   1.549       .  S
C289        C295   1.530       .  S
C289        C293   1.542       .  S
C289        C573   1.513       .  S
C290        H297   1.085       .  S
C290        C291   1.372       .  D
C291        C292   1.539       .  S
C291        C552   1.486       .  S
C292        C296   1.529       .  S
C292        C294   1.537       .  S
C292        H298   1.107       .  S
C293        H299   1.086       .  S
C293        C294   1.368       .  D
C294        C609   1.477       .  S
C295        H300   1.087       .  S
C295        C296   1.357       .  D
C296        C663   1.472       .  S
C301        C302   1.541       .  S
C301        C307   1.525       .  S
C301        C305   1.551       .  S
C301        C537   1.517       .  S
C302        H309   1.085       .  S
C302        C303   1.368       .  D
C303        C304   1.539       .  S
C303        C516   1.487       .  S
C304        C308   1.530       .  S
C304        C306   1.542       .  S
C304        H310   1.108       .  S
C305        H311   1.085       .  S
C305        C306   1.377       .  D
C306        C699   1.487       .  S
C307        H312   1.087       .  S
C307        C308   1.357       .  D
C308        C498   1.468       .  S
O313        C316   1.270       .  A
O313       Cd318   2.536       .  S
C314        O323   1.262       .  A
C314        O319   1.269       .  A
C314        C366   1.475       .  S
O315        C321   1.267       .  A
O315       Cd318   2.493       .  S
C316        O324   1.263       .  A
C317        O322   1.266       .  A
C317        O320   1.267       .  A
C317        C534   1.479       .  S
Cd318       O325   2.459       .  S
Cd318       O324   2.429       .  S
Cd318       O323   2.433   1_455  S
Cd318       O319   2.540   1_455  S
Cd318       O322   2.484       .  S
Cd318       O320   2.489       .  S
C321        O325   1.265       .  A
C321        C342   1.470       .  S
C326        C327   1.551       .  S
C326        C332   1.529       .  S
C326        C330   1.546       .  S
C326        C483   1.518       .  S
C327        H334   1.085       .  S
C327        C328   1.373       .  D
C328        C329   1.539       .  S
C328        C645   1.490       .  S
C329        C333   1.529       .  S
C329        C331   1.536       .  S
C329        H335   1.105       .  S
C330        H336   1.085       .  S
C330        C331   1.371       .  D
C331        C519   1.482       .  S
C332        H337   1.086       .  S
C332        C333   1.356       .  D
C333        C465   1.473       .  S
O338        C341   1.271       .  A
O338       Cd343   2.525       .  S
C339        O348   1.263       .  A
C339        O344   1.269       .  A
C339        C389   1.478       .  S
O340        C346   1.266       .  A
O340       Cd343   2.496       .  S
C341        O349   1.264       .  A
C342        O347   1.268       .  A
C342        O345   1.264       .  A
Cd343       O350   2.493       .  S
Cd343       O349   2.426       .  S
Cd343       O348   2.446   1_455  S
Cd343       O344   2.541   1_455  S
Cd343       O347   2.494   1_554  S
Cd343       O345   2.451   1_554  S
C346        O350   1.266       .  A
C346        C480   1.481       .  S
C351        C352   1.550       .  S
C351        C357   1.528       .  S
C351        C355   1.544       .  S
C351        C444   1.519       .  S
C352        H359   1.085       .  S
C352        C353   1.375       .  D
C353        C354   1.540       .  S
C353        C591   1.485       .  S
C354        C358   1.530       .  S
C354        C356   1.537       .  S
C354        H360   1.108       .  S
C355        H361   1.084       .  S
C355        C356   1.366       .  D
C356        C426   1.485       .  S
C357        H362   1.087       .  S
C357        C358   1.358       .  D
C358        C501   1.468       .  S
O363        C366   1.268       .  A
O363       Cd368   2.540       .  S
C364        O373   1.263       .  A
C364        O369   1.269       .  A
O365        C371   1.267       .  A
O365       Cd368   2.501       .  S
C366        O374   1.263       .  A
C367        O372   1.266       .  A
C367        O370   1.266       .  A
C367        C447   1.480       .  S
Cd368       O375   2.461       .  S
Cd368       O374   2.438       .  S
Cd368       O373   2.430       .  S
Cd368       O369   2.529       .  S
Cd368       O372   2.489       .  S
Cd368       O370   2.496       .  S
C371        O375   1.264       .  A
C371        C396   1.471       .  S
C376        C377   1.541       .  S
C376        C382   1.530       .  S
C376        C380   1.547       .  S
C376        C408   1.513       .  S
C377        H384   1.086       .  S
C377        C378   1.367       .  D
C378        C379   1.537       .  S
C378        C429   1.478       .  S
C379        C383   1.529       .  S
C379        C381   1.542       .  S
C379        H385   1.106       .  S
C380        H386   1.085       .  S
C380        C381   1.374       .  D
C381        C555   1.489       .  S
C382        H387   1.087       .  S
C382        C383   1.358       .  D
C383        C462   1.473       .  S
O388        C391   1.271       .  A
O388       Cd393   2.534       .  S
C389        O398   1.264       .  A
C389        O394   1.269       .  A
O390        C396   1.268       .  A
O390       Cd393   2.494   1_556  S
C391        O399   1.262       .  A
C392        O397   1.266       .  A
C392        O395   1.267       .  A
C392        C411   1.479       .  S
Cd393       O400   2.450   1_554  S
Cd393       O399   2.406       .  S
Cd393       O398   2.450       .  S
Cd393       O394   2.539       .  S
Cd393       O397   2.489       .  S
Cd393       O395   2.491       .  S
C396        O400   1.265       .  A
C401        C406   1.382       .  A
C401        C402   1.405       .  A
C401        N407   1.342       .  A
C402        C403   1.402       .  A
C402        H413   1.082       .  S
C403        C412   1.380       .  A
C403        C404   1.383       .  A
C404        C405   1.407       .  A
C404        N410   1.347       .  A
C405        C406   1.407       .  A
C405        H414   1.082       .  S
C406        C409   1.383       .  A
N407        C408   1.359       .  A
N407        H417   1.045       .  S
C408        C409   1.402       .  A
C409        H415   1.082       .  S
N410        C411   1.358       .  A
N410        H418   1.045       .  S
C411        C412   1.395       .  A
C412        H416   1.082       .  S
C419        C424   1.382       .  A
C419        C420   1.408       .  A
C419        N425   1.346       .  A
C420        C421   1.407       .  A
C420        H431   1.082       .  S
C421        C430   1.383       .  A
C421        C422   1.384       .  A
C422        C423   1.400       .  A
C422        N428   1.340       .  A
C423        C424   1.398       .  A
C423        H432   1.082       .  S
C424        C427   1.373       .  A
N425        C426   1.360       .  A
N425        H435   1.044       .  S
C426        C427   1.395       .  A
C427        H433   1.080       .  S
N428        C429   1.354       .  A
N428        H436   1.044       .  S
C429        C430   1.399       .  A
C430        H434   1.082       .  S
C437        C442   1.382       .  A
C437        C438   1.407       .  A
C437        N443   1.348       .  A
C438        C439   1.407       .  A
C438        H449   1.082       .  S
C439        C448   1.382       .  A
C439        C440   1.384       .  A
C440        C441   1.406       .  A
C440        N446   1.347       .  A
C441        C442   1.406       .  A
C441        H450   1.083       .  S
C442        C445   1.378       .  A
N443        C444   1.359       .  A
N443        H453   1.044       .  S
C444        C445   1.403       .  A
C445        H451   1.082       .  S
N446        C447   1.357       .  A
N446        H454   1.045       .  S
C447        C448   1.397       .  A
C448        H452   1.082       .  S
C455        C460   1.384       .  A
C455        C456   1.405       .  A
C455        N461   1.344       .  A
C456        C457   1.404       .  A
C456        H467   1.082       .  S
C457        C466   1.380       .  A
C457        C458   1.385       .  A
C458        C459   1.397       .  A
C458        N464   1.337       .  A
C459        C460   1.395       .  A
C459        H468   1.083       .  S
C460        C463   1.368       .  A
N461        C462   1.356       .  A
N461        H471   1.044       .  S
C462        C463   1.393       .  A
C463        H469   1.082       .  S
N464        C465   1.353   1_655  A
N464        H472   1.045   1_655  S
C465        C466   1.396   1_455  A
C466        H470   1.081   1_655  S
C473        C478   1.383       .  A
C473        C474   1.406       .  A
C473        N479   1.347       .  A
C474        C475   1.407       .  A
C474        H485   1.082       .  S
C475        C484   1.381       .  A
C475        C476   1.382       .  A
C476        C477   1.408       .  A
C476        N482   1.346       .  A
C477        C478   1.406       .  A
C477        H486   1.082       .  S
C478        C481   1.383       .  A
N479        C480   1.357       .  A
N479        H489   1.045       .  S
C480        C481   1.397       .  A
C481        H487   1.082       .  S
N482        C483   1.361       .  A
N482        H490   1.045       .  S
C483        C484   1.402       .  A
C484        H488   1.082       .  S
C491        C496   1.385       .  A
C491        C492   1.406       .  A
C491        N497   1.347       .  A
C492        C493   1.406       .  A
C492        H503   1.082       .  S
C493        C502   1.382       .  A
C493        C494   1.386       .  A
C494        C495   1.396       .  A
C494        N500   1.337       .  A
C495        C496   1.395       .  A
C495        H504   1.083       .  S
C496        C499   1.368       .  A
N497        C498   1.355   1_655  A
N497        H507   1.044   1_655  S
C498        C499   1.390   1_455  A
C499        H505   1.083   1_655  S
N500        C501   1.351       .  A
N500        H508   1.045       .  S
C501        C502   1.395       .  A
C502        H506   1.082       .  S
C509        C514   1.383       .  A
C509        C510   1.401       .  A
C509        N515   1.343       .  A
C510        C511   1.401       .  A
C510        H521   1.083       .  S
C511        C520   1.372       .  A
C511        C512   1.384       .  A
C512        C513   1.407       .  A
C512        N518   1.348       .  A
C513        C514   1.407       .  A
C513        H522   1.082       .  S
C514        C517   1.380       .  A
N515        C516   1.357       .  A
N515        H525   1.043       .  S
C516        C517   1.400       .  A
C517        H523   1.082       .  S
N518        C519   1.357       .  A
N518        H526   1.045       .  S
C519        C520   1.395       .  A
C520        H524   1.082       .  S
C527        C532   1.383       .  A
C527        C528   1.408       .  A
C527        N533   1.347       .  A
C528        C529   1.408       .  A
C528        H539   1.082       .  S
C529        C538   1.385       .  A
C529        C530   1.381       .  A
C530        C531   1.406       .  A
C530        N536   1.342       .  A
C531        C532   1.403       .  A
C531        H540   1.082       .  S
C532        C535   1.381       .  A
N533        C534   1.358       .  A
N533        H543   1.045       .  S
C534        C535   1.396       .  A
C535        H541   1.082       .  S
N536        C537   1.361       .  A
N536        H544   1.045       .  S
C537        C538   1.402       .  A
C538        H542   1.082       .  S
C545        C550   1.382       .  A
C545        C546   1.412       .  A
C545        N551   1.351       .  A
C546        C547   1.412       .  A
C546        H557   1.082       .  S
C547        C556   1.389       .  A
C547        C548   1.383       .  A
C548        C549   1.398       .  A
C548        N554   1.339       .  A
C549        C550   1.397       .  A
C549        H558   1.083       .  S
C550        C553   1.369       .  A
N551        C552   1.361       .  A
N551        H561   1.044       .  S
C552        C553   1.394       .  A
C553        H559   1.080       .  S
N554        C555   1.355       .  A
N554        H562   1.043       .  S
C555        C556   1.402       .  A
C556        H560   1.082       .  S
C563        C568   1.384       .  A
C563        C564   1.405       .  A
C563        N569   1.345       .  A
C564        C565   1.405       .  A
C564        H575   1.082       .  S
C565        C574   1.380       .  A
C565        C566   1.382       .  A
C566        C567   1.407       .  A
C566        N572   1.345       .  A
C567        C568   1.405       .  A
C567        H576   1.082       .  S
C568        C571   1.383       .  A
N569        C570   1.356       .  A
N569        H579   1.045       .  S
C570        C571   1.397       .  A
C571        H577   1.082       .  S
N572        C573   1.360       .  A
N572        H580   1.045       .  S
C573        C574   1.401       .  A
C574        H578   1.082       .  S
C581        C586   1.384       .  A
C581        C582   1.399       .  A
C581        N587   1.340       .  A
C582        C583   1.398       .  A
C582        H593   1.083       .  S
C583        C592   1.372       .  A
C583        C584   1.383       .  A
C584        C585   1.412       .  A
C584        N590   1.352       .  A
C585        C586   1.412       .  A
C585        H594   1.082       .  S
C586        C589   1.389       .  A
N587        C588   1.354       .  A
N587        H597   1.044       .  S
C588        C589   1.400       .  A
C589        H595   1.082       .  S
N590        C591   1.360       .  A
N590        H598   1.044       .  S
C591        C592   1.393       .  A
C592        H596   1.081       .  S
C599        C604   1.383       .  A
C599        C600   1.400       .  A
C599        N605   1.340       .  A
C600        C601   1.399       .  A
C600        H611   1.083       .  S
C601        C610   1.372       .  A
C601        C602   1.384       .  A
C602        C603   1.406       .  A
C602        N608   1.346       .  A
C603        C604   1.406       .  A
C603        H612   1.082       .  S
C604        C607   1.380       .  A
N605        C606   1.356       .  A
N605        H615   1.043       .  S
C606        C607   1.399       .  A
C607        H613   1.082       .  S
N608        C609   1.357       .  A
N608        H616   1.045       .  S
C609        C610   1.393       .  A
C610        H614   1.082       .  S
C617        C622   1.384       .  A
C617        C618   1.404       .  A
C617        N623   1.346       .  A
C618        C619   1.405       .  A
C618        H629   1.082       .  S
C619        C628   1.377       .  A
C619        C620   1.382       .  A
C620        C621   1.406       .  A
C620        N626   1.346       .  A
C621        C622   1.405       .  A
C621        H630   1.082       .  S
C622        C625   1.380       .  A
N623        C624   1.356       .  A
N623        H633   1.045       .  S
C624        C625   1.396       .  A
C625        H631   1.082       .  S
N626        C627   1.358       .  A
N626        H634   1.044       .  S
C627        C628   1.402       .  A
C628        H632   1.082       .  S
C635        C640   1.383       .  A
C635        C636   1.396       .  A
C635        N641   1.337       .  A
C636        C637   1.395       .  A
C636        H647   1.083       .  S
C637        C646   1.367       .  A
C637        C638   1.382       .  A
C638        C639   1.414       .  A
C638        N644   1.353       .  A
C639        C640   1.414       .  A
C639        H648   1.082       .  S
C640        C643   1.390       .  A
N641        C642   1.354       .  A
N641        H651   1.047       .  S
C642        C643   1.404       .  A
C643        H649   1.082       .  S
N644        C645   1.362       .  A
N644        H652   1.044       .  S
C645        C646   1.394       .  A
C646        H650   1.080       .  S
C653        C658   1.385       .  A
C653        C654   1.397       .  A
C653        N659   1.338       .  A
C654        C655   1.396       .  A
C654        H665   1.083       .  S
C655        C664   1.370       .  A
C655        C656   1.385       .  A
C656        C657   1.404       .  A
C656        N662   1.344       .  A
C657        C658   1.403       .  A
C657        H666   1.082       .  S
C658        C661   1.378       .  A
N659        C660   1.354   1_655  A
N659        H669   1.045   1_655  S
C660        C661   1.394   1_455  A
C661        H667   1.081   1_655  S
N662        C663   1.355       .  A
N662        H670   1.044       .  S
C663        C664   1.392       .  A
C664        H668   1.082       .  S
C671        C676   1.383       .  A
C671        C672   1.404       .  A
C671        N677   1.346       .  A
C672        C673   1.405       .  A
C672        H683   1.082       .  S
C673        C682   1.378       .  A
C673        C674   1.382       .  A
C674        C675   1.409       .  A
C674        N680   1.347       .  A
C675        C676   1.407       .  A
C675        H684   1.082       .  S
C676        C679   1.384       .  A
N677        C678   1.356       .  A
N677        H687   1.045       .  S
C678        C679   1.399       .  A
C679        H685   1.082       .  S
N680        C681   1.361       .  A
N680        H688   1.044       .  S
C681        C682   1.401       .  A
C682        H686   1.082       .  S
C689        C694   1.383       .  A
C689        C690   1.414       .  A
C689        N695   1.353       .  A
C690        C691   1.414       .  A
C690        H701   1.082       .  S
C691        C700   1.392       .  A
C691        C692   1.384       .  A
C692        C693   1.399       .  A
C692        N698   1.340       .  A
C693        C694   1.398       .  A
C693        H702   1.083       .  S
C694        C697   1.371       .  A
N695        C696   1.361       .  A
N695        H705   1.044       .  S
C696        C697   1.392       .  A
C697        H703   1.082       .  S
N698        C699   1.354       .  A
N698        H706   1.044       .  S
C699        C700   1.402       .  A
C700        H704   1.082       .  S
C707        C712   1.386       .  A
C707        C708   1.396       .  A
C707        N713   1.336       .  A
C708        C709   1.394       .  A
C708        H719   1.083       .  S
C709        C718   1.369       .  A
C709        C710   1.385       .  A
C710        C711   1.407       .  A
C710        N716   1.347       .  A
C711        C712   1.407       .  A
C711        H720   1.082       .  S
C712        C715   1.384       .  A
N713        C714   1.352       .  A
N713        H723   1.045       .  S
C714        C715   1.396       .  A
C715        H721   1.082       .  S
N716        C717   1.356   1_655  A
N716        H724   1.045   1_655  S
C717        C718   1.390   1_455  A
C718        H722   1.083       .  S
C725        C730   1.383       .  A
C725        C726   1.400       .  A
C725        N731   1.339       .  A
C726        C727   1.398       .  A
C726        H737   1.083       .  S
C727        C736   1.373       .  A
C727        C728   1.382       .  A
C728        C729   1.409       .  A
C728        N734   1.347       .  A
C729        C730   1.408       .  A
C729        H738   1.082       .  S
C730        C733   1.385       .  A
N731        C732   1.356       .  A
N731        H741   1.044       .  S
C732        C733   1.399       .  A
C733        H739   1.082       .  S
N734        C735   1.361       .  A
N734        H742   1.044       .  S
C735        C736   1.396       .  A
C736        H740   1.080       .  S
C743        C748   1.384       .  A
C743        C744   1.403       .  A
C743        N749   1.345       .  A
C744        C745   1.404       .  A
C744        H755   1.082       .  S
C745        C754   1.376       .  A
C745        C746   1.382       .  A
C746        C747   1.408       .  A
C746        N752   1.347       .  A
C747        C748   1.407       .  A
C747        H756   1.082       .  S
C748        C751   1.382       .  A
N749        C750   1.355       .  A
N749        H759   1.045       .  S
C750        C751   1.398       .  A
C751        H757   1.082       .  S
N752        C753   1.360       .  A
N752        H760   1.044       .  S
C753        C754   1.402       .  A
C754        H758   1.082       .  S
C761        C766   1.384       .  A
C761        C762   1.403       .  A
C761        N767   1.345       .  A
C762        C763   1.404       .  A
C762        H773   1.082       .  S
C763        C772   1.377       .  A
C763        C764   1.382       .  A
C764        C765   1.407       .  A
C764        N770   1.347       .  A
C765        C766   1.406       .  A
C765        H774   1.082       .  S
C766        C769   1.381       .  A
N767        C768   1.355       .  A
N767        H777   1.045       .  S
C768        C769   1.397       .  A
C769        H775   1.082       .  S
N770        C771   1.360       .  A
N770        H778   1.045       .  S
C771        C772   1.401       .  A
C772        H776   1.082       .  S
C779        C784   1.383       .  A
C779        C780   1.401       .  A
C779        N785   1.341       .  A
C780        C781   1.400       .  A
C780        H791   1.083       .  S
C781        C790   1.374       .  A
C781        C782   1.382       .  A
C782        C783   1.410       .  A
C782        N788   1.349       .  A
C783        C784   1.410       .  A
C783        H792   1.082       .  S
C784        C787   1.386       .  A
N785        C786   1.355       .  A
N785        H795   1.044       .  S
C786        C787   1.401       .  A
C787        H793   1.082       .  S
N788        C789   1.361       .  A
N788        H796   1.044       .  S
C789        C790   1.396       .  A
C790        H794   1.080       .  S
C797        C802   1.383       .  A
C797        C798   1.405       .  A
C797        N803   1.346       .  A
C798        C799   1.405       .  A
C798        H809   1.082       .  S
C799        C808   1.380       .  A
C799        C800   1.382       .  A
C800        C801   1.407       .  A
C800        N806   1.345       .  A
C801        C802   1.405       .  A
C801        H810   1.082       .  S
C802        C805   1.381       .  A
N803        C804   1.356       .  A
N803        H813   1.045       .  S
C804        C805   1.397       .  A
C805        H811   1.082       .  S
N806        C807   1.360       .  A
N806        H814   1.045       .  S
C807        C808   1.402       .  A
C808        H812   1.082       .  S
C815        C820   1.385       .  A
C815        C816   1.406   1_565  A
C815        N821   1.345       .  A
C816        C817   1.405       .  A
C816        H827   1.082       .  S
C817        C826   1.381       .  A
C817        C818   1.386       .  A
C818        C819   1.396       .  A
C818        N824   1.336       .  A
C819        C820   1.394   1_545  A
C819        H828   1.083       .  S
C820        C823   1.367       .  A
N821        C822   1.355       .  A
N821        H831   1.045       .  S
C822        C823   1.391       .  A
C823        H829   1.083       .  S
N824        C825   1.352       .  A
N824        H832   1.045       .  S
C825        C826   1.395       .  A
C826        H830   1.082       .  S
C833        C838   1.384       .  A
C833        C834   1.404       .  A
C833        N839   1.346       .  A
C834        C835   1.405       .  A
C834        H845   1.083       .  S
C835        C844   1.375       .  A
C835        C836   1.383       .  A
C836        C837   1.405       .  A
C836        N842   1.347       .  A
C837        C838   1.404       .  A
C837        H846   1.082       .  S
C838        C841   1.379       .  A
N839        C840   1.356       .  A
N839        H849   1.045       .  S
C840        C841   1.395       .  A
C841        H847   1.082       .  S
N842        C843   1.358       .  A
N842        H850   1.045       .  S
C843        C844   1.402       .  A
C844        H848   1.082       .  S
C851        C856   1.384       .  A
C851        C852   1.407       .  A
C851        N857   1.348       .  A
C852        C853   1.407   1_545  A
C852        H863   1.082       .  S
C853        C862   1.381       .  A
C853        C854   1.384       .  A
C854        C855   1.397   1_565  A
C854        N860   1.338       .  A
C855        C856   1.396       .  A
C855        H864   1.083       .  S
C856        C859   1.368       .  A
N857        C858   1.357       .  A
N857        H867   1.044       .  S
C858        C859   1.394       .  A
C859        H865   1.082       .  S
N860        C861   1.355       .  A
N860        H868   1.044       .  S
C861        C862   1.397       .  A
C862        H866   1.081       .  S
C869        C874   1.384       .  A
C869        C870   1.400       .  A
C869        N875   1.340       .  A
C870        C871   1.398       .  A
C870        H881   1.083       .  S
C871        C880   1.372       .  A
C871        C872   1.383       .  A
C872        C873   1.407       .  A
C872        N878   1.346       .  A
C873        C874   1.407       .  A
C873        H882   1.082       .  S
C874        C877   1.383       .  A
N875        C876   1.354       .  A
N875        H885   1.044       .  S
C876        C877   1.399       .  A
C877        H883   1.082       .  S
N878        C879   1.359       .  A
N878        H886   1.044       .  S
C879        C880   1.394       .  A
C880        H884   1.079       .  S
C887        C892   1.383       .  A
C887        C888   1.405       .  A
C887        N893   1.347       .  A
C888        C889   1.406       .  A
C888        H899   1.082       .  S
C889        C898   1.379       .  A
C889        C890   1.382       .  A
C890        C891   1.407       .  A
C890        N896   1.345       .  A
C891        C892   1.405       .  A
C891        H900   1.082       .  S
C892        C895   1.382       .  A
N893        C894   1.357       .  A
N893        H903   1.045       .  S
C894        C895   1.397       .  A
C895        H901   1.082       .  S
N896        C897   1.360       .  A
N896        H904   1.045       .  S
C897        C898   1.402       .  A
C898        H902   1.082       .  S
C905        C910   1.384       .  A
C905        C906   1.397       .  A
C905        N911   1.338       .  A
C906        C907   1.396       .  A
C906        H917   1.083       .  S
C907        C916   1.368       .  A
C907        C908   1.383       .  A
C908        C909   1.411       .  A
C908        N914   1.351       .  A
C909        C910   1.411       .  A
C909        H918   1.082       .  S
C910        C913   1.387       .  A
N911        C912   1.353       .  A
N911        H921   1.042       .  S
C912        C913   1.400       .  A
C913        H919   1.082       .  S
N914        C915   1.359       .  A
N914        H922   1.044       .  S
C915        C916   1.391       .  A
C916        H920   1.081       .  S
C923        C928   1.382       .  A
C923        C924   1.406       .  A
C923        N929   1.344       .  A
C924        C925   1.403       .  A
C924        H935   1.082       .  S
C925        C934   1.381       .  A
C925        C926   1.383       .  A
C926        C927   1.406       .  A
C926        N932   1.346       .  A
C927        C928   1.406       .  A
C927        H936   1.082       .  S
C928        C931   1.381       .  A
N929        C930   1.359       .  A
N929        H939   1.045       .  S
C930        C931   1.402       .  A
C931        H937   1.082       .  S
N932        C933   1.357       .  A
N932        H940   1.045       .  S
C933        C934   1.396       .  A
C934        H938   1.082       .  S
C941        C946   1.382       .  A
C941        C942   1.414       .  A
C941        N947   1.353       .  A
C942        C943   1.415       .  A
C942        H953   1.082       .  S
C943        C952   1.391       .  A
C943        C944   1.383       .  A
C944        C945   1.399       .  A
C944        N950   1.340       .  A
C945        C946   1.397       .  A
C945        H954   1.082       .  S
C946        C949   1.371       .  A
N947        C948   1.362       .  A
N947        H957   1.044       .  S
C948        C949   1.393       .  A
C949        H955   1.080       .  S
N950        C951   1.354       .  A
N950        H958   1.044       .  S
C951        C952   1.404       .  A
C952        H956   1.082       .  S
C959        C964   1.383       .  A
C959        C960   1.408       .  A
C959        N965   1.346       .  A
C960        C961   1.407       .  A
C960        H971   1.082       .  S
C961        C970   1.384       .  A
C961        C962   1.383       .  A
C962        C963   1.403       .  A
C962        N968   1.341       .  A
C963        C964   1.401       .  A
C963        H972   1.082       .  S
C964        C967   1.377       .  A
N965        C966   1.358       .  A
N965        H975   1.044       .  S
C966        C967   1.396       .  A
C967        H973   1.082       .  S
N968        C969   1.357       .  A
N968        H976   1.041       .  S
C969        C970   1.400       .  A
C970        H974   1.082       .  S
C977        C982   1.383       .  A
C977        C978   1.407       .  A
C977        N983   1.349       .  A
C978        C979   1.409       .  A
C978        H989   1.083       .  S
C979        C988   1.379       .  A
C979        C980   1.382       .  A
C980        C981   1.404       .  A
C980        N986   1.346       .  A
C981        C982   1.403       .  A
C981        H990   1.082       .  S
C982        C985   1.377       .  A
N983        C984   1.358       .  A
N983        H993   1.045       .  S
C984        C985   1.394       .  A
C985        H991   1.082       .  S
N986        C987   1.358       .  A
N986        H994   1.045       .  S
C987        C988   1.404       .  A
C988        H992   1.082       .  S
C995       C1000   1.383       .  A
C995        C996   1.412       .  A
C995       N1001   1.349       .  A
C996        C997   1.411       .  A
C996       H1007   1.082       .  S
C997       C1006   1.391       .  A
C997        C998   1.383       .  A
C998        C999   1.397       .  A
C998       N1004   1.335       .  A
C999       C1000   1.394       .  A
C999       H1008   1.083       .  S
C1000      C1003   1.369       .  A
N1001      C1002   1.360       .  A
N1001      H1011   1.044       .  S
C1002      C1003   1.392       .  A
C1003      H1009   1.080       .  S
N1004      C1005   1.353       .  A
N1004      H1012   1.042       .  S
C1005      C1006   1.402       .  A
C1006      H1010   1.082       .  S
C1013      C1018   1.385       .  A
C1013      C1014   1.408       .  A
C1013      N1019   1.348       .  A
C1014      C1015   1.408   1_545  A
C1014      H1025   1.082       .  S
C1015      C1024   1.383       .  A
C1015      C1016   1.385       .  A
C1016      C1017   1.393   1_565  A
C1016      N1022   1.335       .  A
C1017      C1018   1.392       .  A
C1017      H1026   1.083       .  S
C1018      C1021   1.364       .  A
N1019      C1020   1.357       .  A
N1019      H1029   1.045       .  S
C1020      C1021   1.391       .  A
C1021      H1027   1.083       .  S
N1022      C1023   1.351       .  A
N1022      H1030   1.045       .  S
C1023      C1024   1.396       .  A
C1024      H1028   1.082       .  S
C1031      C1036   1.384       .  A
C1031      C1032   1.400       .  A
C1031      N1037   1.342       .  A
C1032      C1033   1.401       .  A
C1032      H1043   1.082       .  S
C1033      C1042   1.373       .  A
C1033      C1034   1.382       .  A
C1034      C1035   1.408       .  A
C1034      N1040   1.347       .  A
C1035      C1036   1.407       .  A
C1035      H1044   1.082       .  S
C1036      C1039   1.383       .  A
N1037      C1038   1.353       .  A
N1037      H1047   1.045       .  S
C1038      C1039   1.398       .  A
C1039      H1045   1.082       .  S
N1040      C1041   1.361       .  A
N1040      H1048   1.044       .  S
C1041      C1042   1.399       .  A
C1042      H1046   1.083       .  S
C1049      C1054   1.384       .  A
C1049      C1050   1.397       .  A
C1049      N1055   1.338       .  A
C1050      C1051   1.395       .  A
C1050      H1061   1.082       .  S
C1051      C1060   1.369       .  A
C1051      C1052   1.383       .  A
C1052      C1053   1.412       .  A
C1052      N1058   1.351       .  A
C1053      C1054   1.412       .  A
C1053      H1062   1.082       .  S
C1054      C1057   1.388       .  A
N1055      C1056   1.353       .  A
N1055      H1065   1.043       .  S
C1056      C1057   1.402       .  A
C1057      H1063   1.082       .  S
N1058      C1059   1.361       .  A
N1058      H1066   1.044       .  S
C1059      C1060   1.391       .  A
C1060      H1064   1.081       .  S
C1067      C1072   1.384       .  A
C1067      C1068   1.405   1_565  A
C1067      N1073   1.345       .  A
C1068      C1069   1.405       .  A
C1068      H1079   1.082       .  S
C1069      C1078   1.380       .  A
C1069      C1070   1.384       .  A
C1070      C1071   1.398       .  A
C1070      N1076   1.338       .  A
C1071      C1072   1.397   1_545  A
C1071      H1080   1.083       .  S
C1072      C1075   1.370       .  A
N1073      C1074   1.356       .  A
N1073      H1083   1.044       .  S
C1074      C1075   1.396       .  A
C1075      H1081   1.082       .  S
N1076      C1077   1.356       .  A
N1076      H1084   1.044       .  S
C1077      C1078   1.396       .  A
C1078      H1082   1.081       .  S
C1085      C1090   1.383       .  A
C1085      C1086   1.402       .  A
C1085      N1091   1.341       .  A
C1086      C1087   1.401       .  A
C1086      H1097   1.083       .  S
C1087      C1096   1.375       .  A
C1087      C1088   1.384       .  A
C1088      C1089   1.408       .  A
C1088      N1094   1.348       .  A
C1089      C1090   1.407       .  A
C1089      H1098   1.082       .  S
C1090      C1093   1.384       .  A
N1091      C1092   1.355       .  A
N1091      H1101   1.043       .  S
C1092      C1093   1.399       .  A
C1093      H1099   1.082       .  S
N1094      C1095   1.358       .  A
N1094      H1102   1.044       .  S
C1095      C1096   1.395       .  A
C1096      H1100   1.082       .  S
C1103      C1108   1.384       .  A
C1103      C1104   1.404       .  A
C1103      N1109   1.345       .  A
C1104      C1105   1.405       .  A
C1104      H1115   1.083       .  S
C1105      C1114   1.377       .  A
C1105      C1106   1.382       .  A
C1106      C1107   1.406       .  A
C1106      N1112   1.344       .  A
C1107      C1108   1.403       .  A
C1107      H1116   1.082       .  S
C1108      C1111   1.380       .  A
N1109      C1110   1.356       .  A
N1109      H1119   1.045       .  S
C1110      C1111   1.395       .  A
C1111      H1117   1.082       .  S
N1112      C1113   1.359       .  A
N1112      H1120   1.045       .  S
C1113      C1114   1.401       .  A
C1114      H1118   1.083       .  S
