geometry optimzed in LAMMPS
_audit_creation_date              2020-11-30 
_audit_creation_method            'lammps2cif' 
_symmetry_space_group_name_H-M    'P1' 
_symmetry_Int_Tables_number       1 
_symmetry_cell_setting            triclinic 
loop_ 
_symmetry_equiv_pos_as_xyz 
  x,y,z 
_cell_length_a                    43.4463449 
_cell_length_b                    43.44351034568417 
_cell_length_c                    43.23556709863171 
_cell_angle_alpha                 90.11773043802386 
_cell_angle_beta                  90.16431058447363 
_cell_angle_gamma                 89.79897383176608 
loop_ 
_atom_site_label 
_atom_site_type_symbol 
_atom_site_fract_x 
_atom_site_fract_y 
_atom_site_fract_z 
_atom_site_charge 
O1          O  0.17780504  0.70221221  0.50437470    -0.78700
C2          C  0.19788378  0.79172359  0.53279719     0.82300
O3          O  0.23158741  0.70766198  0.43164309    -0.79800
O4          O  0.28440432  0.78891920  0.50705177    -0.81300
O5          O  0.26759046  0.69154808  0.55781850    -0.81100
O6          O  0.20951291  0.66319364  0.51473172    -0.79700
Zn7        Zn  0.20402984  0.73702488  0.49176317     1.55700
O8          O  0.29435404  0.73409777  0.55632555    -0.81100
Cd9        Cd  0.25103967  0.68568467  0.51447106     1.59700
Cd10       Cd  0.26572342  0.73007064  0.45984360     1.59600
O11         O  0.28629236  0.66386977  0.49102536    -0.81100
O12         O  0.24537516  0.72840977  0.50064200    -1.91600
Cd13       Cd  0.25991413  0.75853151  0.53178027     1.59900
O14         O  0.30355547  0.70140575  0.46110392    -0.81100
O15         O  0.22309570  0.78741239  0.54790255    -0.79700
C16         C  0.20429745  0.71765310  0.43570099     0.82800
C17         C  0.18244218  0.67436591  0.51189668     0.82500
O18         O  0.19010256  0.77429933  0.51081917    -0.78700
C19         C  0.29357554  0.70471844  0.55825144     0.83300
O20         O  0.20193643  0.74403309  0.44738934    -0.78800
C21         C  0.30685728  0.67493397  0.47323516     0.83400
C22         C  0.29064013  0.79435985  0.47892393     0.83700
O23         O  0.28242893  0.77600842  0.45690795    -0.81200
O24         O  0.80747914  0.77881539  0.99409699    -0.78700
C25         C  0.81850369  0.68510296  0.03346008     0.82300
O26         O  0.77208976  0.70678884  0.92913825    -0.79800
O27         O  0.72220546  0.66337782  0.98514629    -0.81300
O28         O  0.70868849  0.73646333  0.05361326    -0.81100
O29         O  0.77467153  0.79534656  0.03023130    -0.79700
Zn30       Zn  0.79885307  0.73479844  0.99640282     1.55700
O31         O  0.73021553  0.68997639  0.05471362    -0.81100
Cd32       Cd  0.74005181  0.76078850  0.02514412     1.59700
Cd33       Cd  0.74037710  0.73126660  0.95711150     1.59600
O34         O  0.71029464  0.78551179  0.99914321    -0.81100
O35         O  0.75707670  0.72945705  0.99866019    -1.91600
Cd36       Cd  0.75252809  0.68759385  0.01367969     1.59900
O37         O  0.72180065  0.77575485  0.94988406    -0.81100
O38         O  0.79583475  0.66978683  0.02261029    -0.79700
C39         C  0.79905649  0.69847846  0.93790921     0.82800
C40         C  0.79686194  0.80029206  0.01106784     0.82500
O41         O  0.82011901  0.71423234  0.03115910    -0.78700
C42         C  0.70706784  0.70739552  0.05880003     0.83300
O43         O  0.81216264  0.71026195  0.96130065    -0.78800
C44         C  0.70758094  0.79164361  0.97056458     0.83400
C45         C  0.70174562  0.67514511  0.96737204     0.83700
O46         O  0.70347570  0.70286669  0.95808039    -0.81200
O47         O  0.26566721  0.49894748  0.18816078    -0.78700
C48         C  0.16342007  0.49122419  0.17644493     0.82300
O49         O  0.19745461  0.57958195  0.22227719    -0.79800
O50         O  0.14991343  0.53029279  0.27335340    -0.81300
O51         O  0.21886811  0.45961891  0.29320517    -0.81100
O52         O  0.27561864  0.46502414  0.22571319    -0.79700
Zn53       Zn  0.22472486  0.51525860  0.19676688     1.55700
O54         O  0.17161078  0.46048029  0.27323754    -0.81100
Cd55       Cd  0.24447449  0.48247876  0.25899666     1.59700
Cd56       Cd  0.21955308  0.55290278  0.25668237     1.59600
O57         O  0.27334881  0.50779652  0.28537523    -0.81100
O58         O  0.21608670  0.51133684  0.23940336    -1.91600
Cd59       Cd  0.17313428  0.49897194  0.24591941     1.59900
O60         O  0.26380280  0.55762826  0.27654691    -0.81100
O61         O  0.15231898  0.49270679  0.20371264    -0.79700
C62         C  0.20154926  0.57371981  0.19368382     0.82800
C63         C  0.28299466  0.47898141  0.20061701     0.82500
O64         O  0.19167433  0.49648295  0.17104013    -0.78700
C65         C  0.18978072  0.45554200  0.29583512     0.83300
O66         O  0.22552017  0.55907386  0.18593016    -0.78800
C67         C  0.27953298  0.53603259  0.28951051     0.83400
C68         C  0.16190572  0.54768928  0.29380507     0.83700
O69         O  0.19013049  0.55523821  0.29295867    -0.81200
O70         O  0.48741703  0.19917088  0.26677019    -0.78700
C71         C  0.47614070  0.19036335  0.16476901     0.82300
O72         O  0.56085440  0.23795861  0.19012432    -0.79800
O73         O  0.49771361  0.29308584  0.15192924    -0.81300
O74         O  0.44362433  0.30464887  0.22749498    -0.81100
O75         O  0.45250550  0.23484110  0.27902404    -0.79700
Zn76       Zn  0.50264768  0.21081435  0.22581887     1.55700
O77         O  0.43527125  0.27642855  0.18621946    -0.81100
Cd78       Cd  0.46889034  0.26997705  0.24968232     1.59700
Cd79       Cd  0.53664773  0.27312801  0.21517386     1.59600
O80         O  0.49690939  0.29359773  0.27795802    -0.81100
O81         O  0.49600359  0.25302013  0.21765481    -1.91600
Cd82       Cd  0.47727788  0.25863710  0.17671670     1.59900
O83         O  0.54524959  0.29080309  0.26079651    -0.81100
O84         O  0.47453160  0.21755889  0.15389982    -0.79700
C85         C  0.55684786  0.20995095  0.19805237     0.82800
C86         C  0.46701904  0.20967084  0.28487325     0.82500
O87         O  0.48433862  0.18495526  0.19249299    -0.78700
C88         C  0.43687642  0.30279594  0.19885243     0.83300
O89         O  0.54724851  0.20502339  0.22516451    -0.78800
C90         C  0.52531438  0.29955483  0.28112946     0.83400
C91         C  0.51653812  0.31366450  0.16074730     0.83700
O92         O  0.53208143  0.31060676  0.18569023    -0.81200
O93         O  0.30230751  0.28020608  0.54392397    -0.78700
C94         C  0.30399002  0.17890039  0.56664906     0.82300
O95         O  0.28239205  0.21993389  0.46605026    -0.79800
O96         O  0.20845443  0.17389953  0.51554722    -0.81300
O97         O  0.19661883  0.24505892  0.58426685    -0.81100
O98         O  0.25957709  0.30414378  0.55898618    -0.79700
Zn99       Zn  0.29133418  0.23676099  0.54185801     1.55700
O100        O  0.22361133  0.20260213  0.58728006    -0.81100
Cd101      Cd  0.22825188  0.26679804  0.55462091     1.59700
Cd102      Cd  0.24224325  0.23901306  0.48758355     1.59600
O103        O  0.19843554  0.28606883  0.52442198    -0.81100
O104        O  0.24986293  0.23397484  0.53178460    -1.91600
Cd105      Cd  0.24086011  0.19251935  0.54524301     1.59900
O106        O  0.22734306  0.28623163  0.48248576    -0.81100
O107        O  0.28164305  0.16884600  0.55035078    -0.79700
C108        C  0.30788642  0.21284111  0.47948204     0.82800
C109        C  0.28734782  0.30491551  0.54881667     0.82500
O110        O  0.30539063  0.20721994  0.57455822    -0.78700
C111        C  0.19763554  0.21568939  0.58601110     0.83300
O112        O  0.31328495  0.21991566  0.50728091    -0.78800
C113        C  0.20726118  0.29942737  0.50009606     0.83400
C114        C  0.19656315  0.18427902  0.49053984     0.83700
O115        O  0.20594862  0.20927903  0.47820877    -0.81200
O116        O  0.69229330  0.57245879  0.19913454    -0.78700
C117        C  0.78917765  0.55187015  0.20864950     0.82300
O118        O  0.70633504  0.46266252  0.21736613    -0.79800
O119        O  0.77878696  0.52475050  0.29611692    -0.81300
O120        O  0.69036405  0.58433319  0.27698114    -0.81100
O121        O  0.65471127  0.54674546  0.22210531    -0.79700
Zn122      Zn  0.72215951  0.53914683  0.21031494     1.55700
O123        O  0.73224141  0.58065667  0.30458805    -0.81100
Cd124      Cd  0.67993332  0.54206356  0.26158918     1.59700
Cd125      Cd  0.72460598  0.48397183  0.25883774     1.59600
O126        O  0.66089888  0.51439709  0.29518317    -0.81100
O127        O  0.72144200  0.52838924  0.25157442    -1.91600
Cd128      Cd  0.75418142  0.55383656  0.27007994     1.59900
O129        O  0.69346020  0.47480175  0.29377640    -0.81100
O130        O  0.78827312  0.56342512  0.23604245    -0.79700
C131        C  0.69758493  0.47731236  0.19294050     0.82800
C132        C  0.66402386  0.56479054  0.20101585     0.82500
O133        O  0.76470734  0.54233107  0.19576806    -0.78700
C134        C  0.70294396  0.58320785  0.30324467     0.83300
O135        O  0.70387800  0.50530234  0.18969189    -0.78800
C136        C  0.66998262  0.48829067  0.30524423     0.83400
C137        C  0.78440883  0.49610504  0.29653613     0.83700
O138        O  0.76873923  0.47665035  0.28028901    -0.81200
O139        O  0.05118412  0.32207426  0.30932257    -0.78700
C140        C  0.03686451  0.30825531  0.21339480     0.82300
O141        O  0.94183753  0.30261426  0.28749841    -0.79800
O142        O  0.00995038  0.21998419  0.22768975    -0.81300
O143        O  0.06073334  0.24025503  0.32467778    -0.81100
O144        O  0.02404817  0.30218350  0.34770656    -0.79700
Zn145      Zn  0.01935137  0.30958958  0.27899026     1.55700
O146        O  0.06332765  0.21740437  0.27886885    -0.81100
Cd147      Cd  0.01914912  0.26138972  0.32392846     1.59700
Cd148      Cd  0.96511315  0.26101167  0.27384857     1.59600
O149        O  0.98861452  0.23035937  0.34173063    -0.81100
O150        O  0.00918732  0.26876341  0.28103271    -1.91600
Cd151      Cd  0.03686055  0.24872852  0.25209878     1.59900
O152        O  0.95306002  0.22609249  0.30455439    -0.81100
O153        O  0.04798214  0.28088190  0.21614387    -0.79700
C154        C  0.95538982  0.32756540  0.29591028     0.82800
C155        C  0.04328945  0.32178046  0.33766943     0.82500
O156        O  0.02571249  0.32197946  0.23666058    -0.78700
C157        C  0.06719570  0.21683470  0.30831116     0.83300
O158        O  0.98403446  0.33093444  0.29283554    -0.78800
C159        C  0.96506020  0.21729187  0.33010251     0.83400
C160        C  0.98278653  0.22248803  0.21710934     0.83700
O161        O  0.96272873  0.24109348  0.22875263    -0.81200
O162        O  0.74159367  0.98452774  0.30602080    -0.78700
C163        C  0.83868719  0.96113299  0.29713028     0.82300
O164        O  0.78982662  0.06429458  0.28069466    -0.79800
O165        O  0.83943023  0.01258428  0.20473746    -0.81300
O166        O  0.76736155  0.94377637  0.19616112    -0.81100
O167        O  0.71547343  0.96054872  0.26917065    -0.79700
Zn168      Zn  0.78213973  0.98751830  0.28881382     1.55700
O169        O  0.81377214  0.94091753  0.21687447    -0.81100
Cd170      Cd  0.74700570  0.96972037  0.23230618     1.59700
Cd171      Cd  0.77466631  0.04088759  0.23945660     1.59600
O172        O  0.71931142  0.99695343  0.20760044    -0.81100
O173        O  0.77990963  0.99656427  0.24745465    -1.91600
Cd174      Cd  0.82081133  0.98286703  0.23609304     1.59900
O175        O  0.72944927  0.04569065  0.21995185    -0.81100
O176        O  0.84775558  0.97777664  0.27483112    -0.79700
C177        C  0.80113209  0.05098019  0.30475363     0.82800
C178        C  0.71661770  0.97356510  0.29591588     0.82500
O179        O  0.81052867  0.95371757  0.29961257    -0.78700
C180        C  0.79628159  0.93851246  0.19352279     0.83300
O181        O  0.80002962  0.02222637  0.30823640    -0.78800
C182        C  0.71274134  0.02524459  0.20619479     0.83400
C183        C  0.83050623  0.03860307  0.19456881     0.83700
O184        O  0.80629537  0.05189979  0.20497318    -0.81200
O185        O  0.67941788  0.81728804  0.47654798    -0.78700
C186        C  0.71186319  0.72251999  0.46261058     0.82300
O187        O  0.73877129  0.81808202  0.55096486    -0.79800
O188        O  0.79834707  0.74055786  0.47636547    -0.81300
O189        O  0.77370704  0.83581521  0.42745774    -0.81100
O190        O  0.71060062  0.85740691  0.46923730    -0.79700
Zn191      Zn  0.70899178  0.78521284  0.49167816     1.55700
O192        O  0.79806781  0.79140728  0.42569152    -0.81100
Cd193      Cd  0.75380227  0.83821053  0.46980032     1.59700
Cd194      Cd  0.77261572  0.79508928  0.52337788     1.59600
O195        O  0.78490347  0.86285043  0.49582667    -0.81100
O196        O  0.75061090  0.79540778  0.48335441    -1.91600
Cd197      Cd  0.76730177  0.76576699  0.45323894     1.59900
O198        O  0.80895737  0.82583026  0.52162965    -0.81100
O199        O  0.73555508  0.72843955  0.44576147    -0.79700
C200        C  0.71083675  0.80987498  0.54759307     0.82800
C201        C  0.68373956  0.84572384  0.47097311     0.82500
O202        O  0.70005143  0.74327675  0.47942780    -0.78700
C203        C  0.79889872  0.82087716  0.42638950     0.83300
O204        O  0.70609403  0.78348657  0.53648845    -0.78800
C205        C  0.80738700  0.85368677  0.51238669     0.83400
C206        C  0.80145242  0.73298420  0.50445210     0.83700
O207        O  0.78999029  0.74902697  0.52683575    -0.81200
C208        C  0.96261442  0.87548434  0.39775962     0.86300
C209        C  0.97970809  0.89975237  0.41719396    -0.54000
C210        C  0.96089634  0.92224647  0.42933538     0.09200
C211        C  0.92602082  0.91764507  0.42128025     0.20200
C212        C  0.93736815  0.86315621  0.41927519    -0.54700
C213        C  0.91688741  0.88434951  0.43115606     0.09300
C214        C  0.94440386  0.89430653  0.37398505    -0.54200
C215        C  0.92509816  0.91556926  0.38580744     0.09900
H216        H  0.00449241  0.89959997  0.42043751     0.14400
H217        H  0.91176310  0.93626061  0.43123701     0.00100
H218        H  0.93206197  0.83908286  0.41948637     0.14700
H219        H  0.94422192  0.88907993  0.34936215     0.14500
C220        C  0.87226207  0.12519012  0.45200139     0.86300
C221        C  0.85656002  0.10459207  0.42780000    -0.54000
C222        C  0.87545054  0.08874047  0.40813358     0.09200
C223        C  0.90990273  0.09430871  0.41581742     0.20200
C224        C  0.89393562  0.10347981  0.46972107    -0.54700
C225        C  0.91418942  0.08734364  0.45130723     0.09300
C226        C  0.89355008  0.14515821  0.43240338    -0.54200
C227        C  0.91219841  0.12972003  0.41271133     0.09900
H228        H  0.83218160  0.10587479  0.42299747     0.14400
H229        H  0.92641293  0.08109042  0.40154191     0.00100
H230        H  0.89370889  0.10159776  0.49475024     0.14700
H231        H  0.89133623  0.17004979  0.43113390     0.14500
C232        C  0.88008154  0.97492775  0.62032659     0.86300
C233        C  0.89684464  0.95189941  0.64110395    -0.54000
C234        C  0.91506535  0.93129694  0.62675241     0.09200
C235        C  0.91826051  0.93819341  0.59119740     0.20200
C236        C  0.90563129  0.99227952  0.60329534    -0.54700
C237        C  0.92563745  0.97353853  0.58729843     0.09300
C238        C  0.86531684  0.95423222  0.59525691    -0.54200
C239        C  0.88512269  0.93576199  0.57898540     0.09900
H240        H  0.89028781  0.94803931  0.66504341     0.14400
H241        H  0.93517626  0.92332441  0.57930528     0.00100
H242        H  0.90642995  0.01722415  0.60221401     0.14700
H243        H  0.84072519  0.95252533  0.59173946     0.14500
C244        C  0.12755794  0.06391279  0.38445004     0.86300
C245        C  0.10126162  0.04365076  0.39775453    -0.54000
C246        C  0.07932396  0.06021591  0.41408215     0.09200
C247        C  0.08587912  0.09566589  0.41454043     0.20200
C248        C  0.11057203  0.08776548  0.36520030    -0.54700
C249        C  0.08946127  0.10545972  0.38009919     0.09300
C250        C  0.13959025  0.08021553  0.41323245    -0.54200
C251        C  0.11872637  0.09803147  0.42817093     0.09900
H252        H  0.10144053  0.01869960  0.39728911     0.14400
H253        H  0.06847246  0.10866307  0.42792909     0.00100
H254        H  0.11707969  0.09174252  0.34129516     0.14700
H255        H  0.16356170  0.07940039  0.42031580     0.14500
C256        C  0.03950156  0.15786129  0.60059563     0.86300
C257        C  0.06411627  0.17119486  0.57901437    -0.54000
C258        C  0.08451561  0.15059621  0.56663913     0.09200
C259        C  0.07699055  0.11706486  0.57647665     0.20200
C260        C  0.02286293  0.13311501  0.58128639    -0.54700
C261        C  0.04213173  0.11123432  0.56862260     0.09300
C262        C  0.05844461  0.13921328  0.62416617    -0.54200
C263        C  0.07879132  0.11896486  0.61208012     0.09900
H264        H  0.07027691  0.19514218  0.58015180     0.14400
H265        H  0.09285589  0.09975021  0.56631393     0.00100
H266        H  0.99802955  0.13258085  0.57855791     0.14700
H267        H  0.05784567  0.14360344  0.64890791     0.14500
C268        C  0.11463108  0.89364487  0.55190235     0.86300
C269        C  0.10340020  0.92108587  0.53222890    -0.54000
C270        C  0.08797768  0.94337781  0.54883733     0.09200
C271        C  0.08620757  0.93646281  0.58403167     0.20200
C272        C  0.13325620  0.90740735  0.57832546    -0.54700
C273        C  0.11977722  0.93027111  0.59504609     0.09300
C274        C  0.08526418  0.88274258  0.56830092    -0.54200
C275        C  0.07055337  0.90469999  0.58518172     0.09900
H276        H  0.10422020  0.92096745  0.50713429     0.14400
H277        H  0.07353350  0.95449835  0.59686384     0.00100
H278        H  0.15534217  0.89755604  0.58482488     0.14700
H279        H  0.07825725  0.85898348  0.57059262     0.14500
O280        O  0.03071590  0.03652900  0.42889410    -0.78700
C281        C  0.97328193  0.94857188  0.44836004     0.82300
O282        O  0.94270258  0.06590908  0.49449366    -0.79800
O283        O  0.96423922  0.96707804  0.54822413    -0.81300
O284        O  0.07253145  0.99156933  0.52605026    -0.81100
O285        O  0.06706101  0.04320035  0.46496874    -0.79700
Zn286      Zn  0.99200812  0.01904705  0.45329119     1.55700
O287        O  0.03791466  0.95378343  0.52966310    -0.81100
Cd288      Cd  0.04684468  0.02839804  0.50647476     1.59700
Cd289      Cd  0.97432380  0.04331717  0.52506356     1.59600
O290        O  0.05019896  0.06667236  0.53644584    -0.81100
O291        O  0.00210204  0.01594418  0.49864035    -1.91600
Cd292      Cd  0.99650317  0.97150811  0.51256030     1.59900
O293        O  0.00150476  0.07821835  0.54809895    -0.81100
O294        O  0.98057070  0.94329350  0.47648386    -0.79700
C295        C  0.93891289  0.06668031  0.46496262     0.82800
C296        C  0.05781571  0.04545848  0.43695425     0.82500
O297        O  0.97659396  0.97554759  0.43652600    -0.78700
C298        C  0.06510523  0.96413808  0.53375417     0.83300
O299        O  0.95599591  0.05049041  0.44702364    -0.78800
C300        C  0.03054318  0.08390127  0.55009228     0.83400
C301        C  0.94786641  0.98615043  0.56353321     0.83700
O302        O  0.94931432  0.01529382  0.55799893    -0.81200
O303        O  0.80749382  0.25249117  0.47093327    -0.78700
C304        C  0.81064883  0.35274032  0.46426392     0.82300
O305        O  0.78530545  0.30304388  0.55644840    -0.79800
O306        O  0.71114937  0.35707509  0.50518513    -0.81300
O307        O  0.70436029  0.29179813  0.43139667    -0.81100
O308        O  0.76684435  0.23025062  0.44987256    -0.79700
Zn309      Zn  0.79435840  0.29411634  0.47824335     1.55700
O310        O  0.73117924  0.33473215  0.43285200    -0.81100
Cd311      Cd  0.73442849  0.26595121  0.45968561     1.59700
Cd312      Cd  0.74384966  0.29010739  0.53203173     1.59600
O313        O  0.70520592  0.24143426  0.48587518    -0.81100
O314        O  0.75288218  0.29624631  0.48788951    -1.91600
Cd315      Cd  0.74541049  0.33908194  0.47713854     1.59900
O316        O  0.72203525  0.24600134  0.53487826    -0.81100
O317        O  0.78704105  0.36164593  0.47927346    -0.79700
C318        C  0.81104737  0.30929402  0.54325136     0.82800
C319        C  0.79424947  0.22859085  0.46094584     0.82500
O320        O  0.81030662  0.32668200  0.45064504    -0.78700
C321        C  0.70566230  0.32120418  0.42933763     0.83300
O322        O  0.81491819  0.30528134  0.51473982    -0.78800
C323        C  0.70519836  0.23307123  0.51397162     0.83400
C324        C  0.69969169  0.34693343  0.53035581     0.83700
O325        O  0.70968542  0.32218616  0.54285102    -0.81200
O326        O  0.97539021  0.71499921  0.76656632    -0.78700
C327        C  0.93775333  0.71284239  0.67137913     0.82300
O328        O  0.04528093  0.74548784  0.69943358    -0.79800
O329        O  0.98627418  0.80944900  0.65638306    -0.81300
O330        O  0.92458460  0.82099075  0.73351705    -0.81100
O331        O  0.94556672  0.75029844  0.78865039    -0.79700
Zn332      Zn  0.97377133  0.72659093  0.72288441     1.55700
O333        O  0.91763737  0.79896543  0.68786931    -0.81100
Cd334      Cd  0.95084608  0.78518190  0.75388947     1.59700
Cd335      Cd  0.01902383  0.78046108  0.72178517     1.59600
O336        O  0.97901626  0.81235639  0.77763706    -0.81100
O337        O  0.97560415  0.76867162  0.72016903    -1.91600
Cd338      Cd  0.95845574  0.77788654  0.67954338     1.59900
O339        O  0.02783378  0.80077766  0.76544516    -0.81100
O340        O  0.94884471  0.73665867  0.65824063    -0.79700
C341        C  0.03387011  0.72021518  0.68928435     0.82800
C342        C  0.96207366  0.72558610  0.79042365     0.82500
O343        O  0.93826454  0.70935360  0.70055617    -0.78700
C344        C  0.91775289  0.82281903  0.70475126     0.83300
O345        O  0.00782736  0.71093309  0.69826186    -0.78800
C346        C  0.00766097  0.81505318  0.78183584     0.83400
C347        C  0.00977733  0.82383132  0.66682484     0.83700
O348        O  0.02250493  0.81611590  0.69208910    -0.81200
C349        C  0.11281264  0.57380606  0.62682408     0.86300
C350        C  0.09504531  0.60052996  0.64079132    -0.54000
C351        C  0.07628695  0.61615639  0.62130032     0.09200
C352        C  0.07307568  0.59959065  0.58942212     0.20200
C353        C  0.08712499  0.55140518  0.61582062    -0.54700
C354        C  0.06638310  0.56491438  0.59541208     0.09300
C355        C  0.12632661  0.58471381  0.59608464    -0.54200
C356        C  0.10574302  0.59839837  0.57676519     0.09900
H357        H  0.09953085  0.60832212  0.66429865     0.14400
H358        H  0.05683024  0.61041056  0.57297238     0.00100
H359        H  0.08780991  0.52677227  0.61977128     0.14700
H360        H  0.15075857  0.58333928  0.59088506     0.14500
C361        C  0.14463484  0.41096782  0.46101353     0.86300
C362        C  0.15680710  0.43549395  0.43869454    -0.54000
C363        C  0.13565124  0.44763637  0.41861597     0.09200
C364        C  0.10235984  0.43731851  0.42651344     0.20200
C365        C  0.12025323  0.42934427  0.47988215    -0.54700
C366        C  0.09784393  0.44325466  0.46191765     0.09300
C367        C  0.12536503  0.38890488  0.44147784    -0.54200
C368        C  0.10401358  0.40223883  0.42310457     0.09900
H369        H  0.18079770  0.44112563  0.43704180     0.14400
H370        H  0.08453225  0.44839386  0.41176627     0.00100
H371        H  0.12067944  0.43154118  0.50487467     0.14700
H372        H  0.12946584  0.36417688  0.44096908     0.14500
C373        C  0.86906442  0.62369743  0.52929564     0.86300
C374        C  0.89388990  0.60319898  0.51515527    -0.54000
C375        C  0.91237779  0.58921968  0.53703989     0.09200
C376        C  0.90375503  0.59842291  0.57157810     0.20200
C377        C  0.85277265  0.60091254  0.55136797    -0.54700
C378        C  0.86906685  0.59194942  0.57678885     0.09300
C379        C  0.88765302  0.64619352  0.54942612    -0.54200
C380        C  0.90378969  0.63357242  0.57283138     0.09900
H381        H  0.89640240  0.59955205  0.49046203     0.14400
H382        H  0.91959506  0.58737177  0.58808406     0.00100
H383        H  0.82928830  0.59325352  0.54834178     0.14700
H384        H  0.88534095  0.67102777  0.54736537     0.14500
C385        C  0.88373465  0.46667748  0.38347282     0.86300
C386        C  0.90897157  0.48706768  0.39884884    -0.54000
C387        C  0.93236569  0.47043775  0.41303169     0.09200
C388        C  0.92837704  0.43492587  0.40952378     0.20200
C389        C  0.90103446  0.44574982  0.36161515    -0.54700
C390        C  0.92325074  0.42843808  0.37454372     0.09300
C391        C  0.87384904  0.44623628  0.41060053    -0.54200
C392        C  0.89684520  0.42949618  0.42423815     0.09900
H393        H  0.90681543  0.51169729  0.40188681     0.14400
H394        H  0.94725015  0.42127031  0.42011640     0.00100
H395        H  0.89403446  0.44250613  0.33760525     0.14700
H396        H  0.85029895  0.44558229  0.41891828     0.14500
C397        C  0.95578797  0.38406885  0.61214114     0.86300
C398        C  0.93875937  0.36435553  0.58815701    -0.54000
C399        C  0.91939633  0.37979892  0.56870550     0.09200
C400        C  0.92186710  0.41518758  0.57262814     0.20200
C401        C  0.97463169  0.40652598  0.59179174    -0.54700
C402        C  0.95702981  0.42314561  0.57112960     0.09300
C403        C  0.93144307  0.40501213  0.62673045    -0.54200
C404        C  0.91281810  0.41993054  0.60659348     0.09900
H405        H  0.93824180  0.33944154  0.59018678     0.14400
H406        H  0.90737770  0.42830221  0.55601309     0.00100
H407        H  0.99914555  0.41007088  0.59300740     0.14700
H408        H  0.92757805  0.40601985  0.65156872     0.14500
C409        C  0.04979471  0.64520354  0.39246824     0.86300
C410        C  0.03248007  0.62304683  0.41419370    -0.54000
C411        C  0.05131969  0.60255837  0.42978879     0.09200
C412        C  0.08648303  0.60703927  0.42216727     0.20200
C413        C  0.07270033  0.66045853  0.41463845    -0.54700
C414        C  0.09390019  0.64160215  0.42875626     0.09300
C415        C  0.06872182  0.62423835  0.37185261    -0.54200
C416        C  0.08792935  0.60484422  0.38660353     0.09900
H417        H  0.00782152  0.62354072  0.41758347     0.14400
H418        H  0.10162198  0.59039314  0.43425072     0.00100
H419        H  0.07287473  0.68514108  0.41734583     0.14700
H420        H  0.06836942  0.62585896  0.34670791     0.14500
O421        O  0.04431891  0.45246670  0.47468533    -0.78700
C422        C  0.97056040  0.44870048  0.55202445     0.82300
O423        O  0.95513403  0.51334662  0.44083548    -0.79800
O424        O  0.95132214  0.55105207  0.54834620    -0.81300
O425        O  0.06230725  0.54406881  0.54449825    -0.81100
O426        O  0.07819213  0.48940994  0.48595600    -0.79700
Zn427      Zn  0.00116425  0.46934776  0.48944136     1.55700
O428        O  0.02227253  0.53722854  0.57624170    -0.81100
Cd429      Cd  0.04950279  0.52646941  0.50064901     1.59700
Cd430      Cd  0.97958341  0.54091881  0.47353047     1.59600
O431        O  0.05652891  0.56240339  0.46815599    -0.81100
O432        O  0.00445675  0.51333223  0.50245385    -1.91600
Cd433      Cd  0.98790226  0.51870694  0.54661819     1.59900
O434        O  0.00932334  0.57235517  0.45025254    -0.81100
O435        O  0.97096626  0.47602686  0.56328031    -0.79700
C436        C  0.95428650  0.48414015  0.43639801     0.82800
C437        C  0.07206166  0.46263538  0.47508174     0.82500
O438        O  0.98205333  0.44283382  0.52529532    -0.78700
C439        C  0.04956581  0.54696146  0.57108558     0.83300
O440        O  0.97077346  0.46589232  0.45278512    -0.78800
C441        C  0.03839675  0.57779131  0.45060124     0.83400
C442        C  0.93819826  0.56776068  0.52782931     0.83700
O443        O  0.94649861  0.56642661  0.49936475    -0.81200
C444        C  0.61530321  0.38995005  0.05800214     0.86300
C445        C  0.60342916  0.41600052  0.03615314    -0.54000
C446        C  0.58629633  0.43849664  0.05110112     0.09200
C447        C  0.58359507  0.43286113  0.08665881     0.20200
C448        C  0.63264459  0.40624024  0.08365242    -0.54700
C449        C  0.61666998  0.42778767  0.09910886     0.09300
C450        C  0.58516990  0.37886749  0.07274494    -0.54200
C451        C  0.56876951  0.40082774  0.08828500     0.09900
H452        H  0.60509219  0.41500064  0.01119136     0.14400
H453        H  0.57054980  0.45088501  0.09930467     0.00100
H454        H  0.65611366  0.40015607  0.09021358     0.14700
H455        H  0.57700692  0.35537087  0.07079318     0.14500
C456        C  0.54208741  0.65287272  0.10275343     0.86300
C457        C  0.57188936  0.66459827  0.08814467    -0.54000
C458        C  0.59116397  0.64300971  0.07594142     0.09200
C459        C  0.57800013  0.60988616  0.07974048     0.20200
C460        C  0.52633473  0.63309723  0.07773807    -0.54700
C461        C  0.54464596  0.60986015  0.06621615     0.09300
C462        C  0.55394951  0.62917772  0.12636069    -0.54200
C463        C  0.57317187  0.60726030  0.11486197     0.09900
H464        H  0.57976911  0.68796208  0.09092071     0.14400
H465        H  0.59214639  0.59121547  0.06957914     0.00100
H466        H  0.50205944  0.63523651  0.07210314     0.14700
H467        H  0.55130222  0.63221169  0.15118938     0.14500
C468        C  0.45488145  0.38497468  0.89049520     0.86300
C469        C  0.47361016  0.40401837  0.91396012    -0.54000
C470        C  0.45602146  0.42272447  0.93275888     0.09200
C471        C  0.42044361  0.41930270  0.92682538     0.20200
C472        C  0.43108250  0.36732733  0.90938723    -0.54700
C473        C  0.41289417  0.38432489  0.92852773     0.09300
C474        C  0.43485408  0.40893351  0.87375491    -0.54200
C475        C  0.41698861  0.42668081  0.89223431     0.09900
H476        H  0.49859020  0.40412544  0.91425162     0.14400
H477        H  0.40558890  0.43385322  0.94179559     0.00100
H478        H  0.42511062  0.34375844  0.90400359     0.14700
H479        H  0.43228049  0.41000359  0.84876412     0.14500
C480        C  0.36257457  0.60958538  0.94911406     0.86300
C481        C  0.35409934  0.58526619  0.92493661    -0.54000
C482        C  0.37792923  0.57208092  0.90919039     0.09200
C483        C  0.40949555  0.58215371  0.92237773     0.20200
C484        C  0.38308980  0.59087254  0.97202522    -0.54700
C485        C  0.40801831  0.57688039  0.95780158     0.09300
C486        C  0.38548167  0.63108468  0.93346983    -0.54200
C487        C  0.40936877  0.61714857  0.91902577     0.09900
H488        H  0.33022338  0.58132482  0.91857938     0.14400
H489        H  0.42958184  0.57033541  0.91215181     0.00100
H490        H  0.37922198  0.58867280  0.99659797     0.14700
H491        H  0.38143652  0.65574094  0.93134523     0.14500
C492        C  0.61060985  0.56022369  0.86864628     0.86300
C493        C  0.59063064  0.54008737  0.89061877    -0.54000
C494        C  0.57303183  0.55667612  0.91161889     0.09200
C495        C  0.57701480  0.59235138  0.90796024     0.20200
C496        C  0.58719812  0.58256055  0.85371356    -0.54700
C497        C  0.56964178  0.59952840  0.87368159     0.09300
C498        C  0.62877515  0.58106321  0.89033491    -0.54200
C499        C  0.61196833  0.59792615  0.91035277     0.09900
H500        H  0.59075903  0.51512035  0.88985156     0.14400
H501        H  0.56344003  0.60649196  0.92447008     0.00100
H502        H  0.58726542  0.58856834  0.82950486     0.14700
H503        H  0.65353258  0.58425668  0.88853100     0.14500
C504        C  0.38940360  0.45186935  0.12301082     0.86300
C505        C  0.40656836  0.42646430  0.13943057    -0.54000
C506        C  0.42766594  0.41136476  0.12259246     0.09200
C507        C  0.43335782  0.42656556  0.09026404     0.20200
C508        C  0.41518932  0.47491161  0.11383395    -0.54700
C509        C  0.43826197  0.46181343  0.09588644     0.09300
C510        C  0.37925625  0.43943035  0.09150109    -0.54200
C511        C  0.40188577  0.42624999  0.07388629     0.09900
H512        H  0.40045330  0.41900076  0.16264738     0.14400
H513        H  0.45249995  0.41608068  0.07704153     0.00100
H514        H  0.41303212  0.49962682  0.11667141     0.14700
H515        H  0.35558268  0.44154374  0.08366360     0.14500
O516        O  0.46071042  0.56996136  0.97223982    -0.78700
C517        C  0.53144576  0.58277670  0.04909110     0.82300
O518        O  0.55347690  0.51337763  0.94241748    -0.79800
O519        O  0.55116953  0.48049993  0.05260531    -0.81300
O520        O  0.44385977  0.48071775  0.04460140    -0.81100
O521        O  0.42717104  0.53413656  0.98716496    -0.79700
Zn522      Zn  0.50392313  0.55667242  0.98786805     1.55700
O523        O  0.48087842  0.49330633  0.07811879    -0.81100
Cd524      Cd  0.45733033  0.49901998  0.00192418     1.59700
Cd525      Cd  0.52877796  0.48545145  0.97606363     1.59600
O526        O  0.45168617  0.46300764  0.97029221    -0.81100
O527        O  0.50183809  0.51360049  0.00308394    -1.91600
Cd528      Cd  0.51537115  0.51221879  0.04819508     1.59900
O529        O  0.49900191  0.45281905  0.95286293    -0.81100
O530        O  0.53182653  0.55623111  0.06206366    -0.79700
C531        C  0.55265517  0.54246114  0.93640035     0.82800
C532        C  0.43313456  0.55972692  0.97400105     0.82500
O533        O  0.52003792  0.58648740  0.02200038    -0.78700
C534        C  0.45514396  0.48023801  0.07191905     0.83300
O535        O  0.53480449  0.56035676  0.95167079    -0.78800
C536        C  0.46984271  0.44731191  0.95325439     0.83400
C537        C  0.56533495  0.46136990  0.03522255     0.83700
O538        O  0.56012456  0.46028928  0.00587553    -0.81200
O539        O  0.23215262  0.52544818  0.69559505    -0.78700
C540        C  0.33417015  0.53839457  0.68136478     0.82300
O541        O  0.30407910  0.44532700  0.72206409    -0.79800
O542        O  0.35092528  0.49528687  0.78109510    -0.81300
O543        O  0.28363637  0.56376322  0.79757841    -0.81100
O544        O  0.22403845  0.55910444  0.73367895    -0.79700
Zn545      Zn  0.27423695  0.51076985  0.70196967     1.55700
O546        O  0.32632510  0.56481280  0.77027038    -0.81100
Cd547      Cd  0.25705392  0.54086622  0.76455990     1.59700
Cd548      Cd  0.28192663  0.46948052  0.75883717     1.59600
O549        O  0.23035344  0.51476282  0.79154168    -0.81100
O550        O  0.28490877  0.51179538  0.74384960    -1.91600
Cd551      Cd  0.32859611  0.52334304  0.74878077     1.59900
O552        O  0.23776905  0.46505008  0.77952341    -0.81100
O553        O  0.34857834  0.53012447  0.70580509    -0.79700
C554        C  0.29863471  0.45304209  0.69409258     0.82800
C555        C  0.21538746  0.54531721  0.70886796     0.82500
O556        O  0.30521152  0.53495141  0.67828211    -0.78700
C557        C  0.31292372  0.56535295  0.79630135     0.83300
O558        O  0.27419817  0.46776251  0.68826446    -0.78800
C559        C  0.22365885  0.48655649  0.79450967     0.83400
C560        C  0.33862431  0.47597223  0.79956831     0.83700
O561        O  0.31147204  0.46613101  0.79521680    -0.81200
C562        C  0.64193376  0.61156928  0.45624538     0.86300
C563        C  0.61672378  0.59446000  0.47501838    -0.54000
C564        C  0.59541099  0.57907843  0.45683958     0.09200
C565        C  0.60175690  0.58262615  0.42143946     0.20200
C566        C  0.65555827  0.58590367  0.43579538    -0.54700
C567        C  0.63545789  0.57190934  0.41592469     0.09300
C568        C  0.62391363  0.63191374  0.43366786    -0.54200
C569        C  0.60305854  0.61743490  0.41582872     0.09900
H570        H  0.61588440  0.59432027  0.50007789     0.14400
H571        H  0.58484656  0.57061481  0.40644608     0.00100
H572        H  0.67986820  0.58195940  0.43349749     0.14700
H573        H  0.62837149  0.65638800  0.43081433     0.14500
C574        C  0.60234252  0.46379889  0.63256721     0.86300
C575        C  0.58158601  0.48186408  0.61006205    -0.54000
C576        C  0.56817662  0.46403444  0.58749543     0.09200
C577        C  0.57678803  0.42884556  0.59035401     0.20200
C578        C  0.57997199  0.43959350  0.64519136    -0.54700
C579        C  0.56962228  0.41873686  0.62415693     0.09300
C580        C  0.62500531  0.44604538  0.61170489    -0.54200
C581        C  0.61191193  0.42801210  0.58965936     0.09900
H582        H  0.57708752  0.50630320  0.61190831     0.14400
H583        H  0.56614337  0.41421399  0.57233286     0.00100
H584        H  0.57489748  0.43652774  0.66949524     0.14700
H585        H  0.64977775  0.44629922  0.61540221     0.14500
C586        C  0.44494252  0.64626239  0.59656279     0.86300
C587        C  0.46749181  0.62327595  0.58080552    -0.54000
C588        C  0.45262795  0.60209886  0.56202664     0.09200
C589        C  0.41666023  0.60612153  0.56184307     0.20200
C590        C  0.42801971  0.65998756  0.56901272    -0.54700
C591        C  0.40993510  0.64024573  0.55265056     0.09300
C592        C  0.42267087  0.62526920  0.61369666    -0.54200
C593        C  0.40814080  0.60432867  0.59607953     0.09900
H594        H  0.49226278  0.62350939  0.58388021     0.14400
H595        H  0.40421371  0.58916814  0.54725099     0.00100
H596        H  0.42748717  0.68458239  0.56582330     0.14700
H597        H  0.41863449  0.62685372  0.63849827     0.14500
C598        C  0.37848647  0.55860793  0.37828192     0.86300
C599        C  0.39323565  0.58336154  0.35864560    -0.54000
C600        C  0.41421381  0.60086549  0.37312721     0.09200
C601        C  0.42125195  0.59062546  0.40664701     0.20200
C602        C  0.40599595  0.53875956  0.39012519    -0.54700
C603        C  0.42860908  0.55552476  0.40524258     0.09300
C604        C  0.36793759  0.57467099  0.40817280    -0.54200
C605        C  0.38979726  0.59184218  0.42273765     0.09900
H606        H  0.38661574  0.58757167  0.33470933     0.14400
H607        H  0.43917689  0.60470155  0.41829738     0.00100
H608        H  0.40557537  0.51388730  0.39126120     0.14700
H609        H  0.34438118  0.57375616  0.41646023     0.14500
C610        C  0.55232141  0.38352153  0.38496401     0.86300
C611        C  0.57480528  0.36765857  0.40702447    -0.54000
C612        C  0.59141311  0.38649628  0.42578396     0.09200
C613        C  0.58249981  0.42085419  0.42199872     0.20200
C614        C  0.53106164  0.40234328  0.40694626    -0.54700
C615        C  0.54692740  0.42217094  0.42618724     0.09300
C616        C  0.57065240  0.40880006  0.36870698    -0.54200
C617        C  0.58718271  0.42743824  0.38746973     0.09900
H618        H  0.58009022  0.34326447  0.40480419     0.14400
H619        H  0.59552336  0.43663034  0.43743351     0.00100
H620        H  0.50624887  0.40231920  0.40669443     0.14700
H621        H  0.57263681  0.41019919  0.34366188     0.14500
C622        C  0.36534021  0.40646695  0.54375229     0.86300
C623        C  0.35302020  0.42796958  0.56875384    -0.54000
C624        C  0.37461276  0.44219206  0.58635144     0.09200
C625        C  0.40810998  0.43511729  0.57574270     0.20200
C626        C  0.38631787  0.42699310  0.52380908    -0.54700
C627        C  0.40900868  0.44171796  0.54041436     0.09300
C628        C  0.38750465  0.38564787  0.56196344    -0.54200
C629        C  0.41065852  0.39992163  0.57779723     0.09900
H630        H  0.32919577  0.42837770  0.57605394     0.14400
H631        H  0.42584520  0.44839075  0.58823681     0.00100
H632        H  0.38408676  0.42896271  0.49888204     0.14700
H633        H  0.38384919  0.36101372  0.56363078     0.14500
O634        O  0.46106891  0.44945305  0.52364148    -0.78700
C635        C  0.53152262  0.44647311  0.44510104     0.82300
O636        O  0.54779058  0.50734081  0.55827387    -0.79800
O637        O  0.55166156  0.54633964  0.44934066    -0.81300
O638        O  0.43783496  0.53683765  0.45593713    -0.81100
O639        O  0.42740182  0.48760050  0.51643417    -0.79700
Zn640      Zn  0.50337288  0.46581236  0.50814679     1.55700
O641        O  0.47732356  0.53454334  0.42310881    -0.81100
Cd642      Cd  0.45545356  0.52237874  0.49845624     1.59700
Cd643      Cd  0.52657048  0.53709386  0.52450352     1.59600
O644        O  0.45066188  0.55979729  0.52759552    -0.81100
O645        O  0.50035462  0.51001561  0.49593466    -1.91600
Cd646      Cd  0.51372806  0.51623059  0.45132770     1.59900
O647        O  0.49724879  0.57131891  0.54617710    -0.81100
O648        O  0.52998100  0.47379475  0.43416180    -0.79700
C649        C  0.54867029  0.47792143  0.56209538     0.82800
C650        C  0.43375673  0.46047976  0.52577629     0.82500
O651        O  0.52119307  0.43992436  0.47200161    -0.78700
C652        C  0.44912988  0.54109682  0.42909112     0.83300
O653        O  0.53345599  0.46000082  0.54437778    -0.78800
C654        C  0.46806832  0.57648628  0.54437808     0.83400
C655        C  0.56836636  0.56074888  0.46900745     0.83700
O656        O  0.56232813  0.55957217  0.49813077    -0.81200
O657        O  0.47066151  0.69016126  0.80312639    -0.78700
C658        C  0.46566826  0.71806492  0.70733865     0.82300
O659        O  0.55440944  0.73552573  0.80660498    -0.79800
O660        O  0.49674246  0.80077264  0.72041770    -0.81300
O661        O  0.43147259  0.78312110  0.80697536    -0.81100
O662        O  0.46665147  0.72398652  0.84203975    -0.79700
Zn663      Zn  0.49344897  0.71379603  0.77074254     1.55700
O664        O  0.43981834  0.81084782  0.76585891    -0.81100
Cd665      Cd  0.47241628  0.76423506  0.81868688     1.59700
Cd666      Cd  0.53375233  0.77262739  0.78098984     1.59600
O667        O  0.49481874  0.79771561  0.84324258    -0.81100
O668        O  0.49140549  0.75672801  0.77822630    -1.91600
Cd669      Cd  0.46674115  0.77641360  0.74543976     1.59900
O670        O  0.53240661  0.80986860  0.81075320    -0.81100
O671        O  0.45277548  0.74420962  0.71234042    -0.79700
C672        C  0.54820046  0.70747805  0.80007462     0.82800
C673        C  0.46419500  0.69691950  0.83105411     0.82500
O674        O  0.48125540  0.70448568  0.72805646    -0.78700
C675        C  0.43425987  0.80943422  0.79474736     0.83300
O676        O  0.53666589  0.70177126  0.77384173    -0.78800
C677        C  0.51658005  0.81532174  0.83499195     0.83400
C678        C  0.52541688  0.80409484  0.71707925     0.83700
O679        O  0.54465744  0.79152008  0.73617735    -0.81200
O680        O  0.31508052  0.95204791  0.19519313    -0.78700
C681        C  0.22101196  0.97096947  0.20881564     0.82300
O682        O  0.30804431  0.05894644  0.23101582    -0.79800
O683        O  0.23037865  0.99243636  0.29838052    -0.81300
O684        O  0.31796526  0.92921513  0.27714587    -0.81100
O685        O  0.35459366  0.96745916  0.22352616    -0.79700
Zn686      Zn  0.28829284  0.98565977  0.21154513     1.55700
O687        O  0.27694752  0.93575304  0.30526520    -0.81100
Cd688      Cd  0.33013014  0.97154289  0.26358362     1.59700
Cd689      Cd  0.28790355  0.03230665  0.26734465     1.59600
O690        O  0.35058121  0.99495309  0.30012986    -0.81100
O691        O  0.28948155  0.98909545  0.25424723    -1.91600
Cd692      Cd  0.25540494  0.96410756  0.27111853     1.59900
O693        O  0.31787698  0.03439835  0.30418627    -0.81100
O694        O  0.22204825  0.95671338  0.23497008    -0.79700
C695        C  0.31679612  0.04839232  0.20466998     0.82800
C696        C  0.34395856  0.95595391  0.19859315     0.82500
O697        O  0.24498985  0.98365861  0.19808270    -0.78700
C698        C  0.30590300  0.93043019  0.30359836     0.83300
O699        O  0.30922728  0.02180675  0.19539120    -0.78800
C700        C  0.34090953  0.01895461  0.31416531     0.83400
C701        C  0.22593214  0.02115564  0.30084884     0.83700
O702        O  0.24355047  0.04065705  0.28710209    -0.81200
O703        O  0.29694214  0.73260076  0.97426743    -0.78700
C704        C  0.31513341  0.83339423  0.95502086     0.82300
O705        O  0.28103255  0.80691349  0.05251228    -0.79800
O706        O  0.22793129  0.85763052  0.00905137    -0.81300
O707        O  0.19527123  0.78693865  0.93897221    -0.81100
O708        O  0.25453672  0.72145603  0.94759937    -0.79700
Zn709      Zn  0.29426629  0.77584073  0.98553599     1.55700
O710        O  0.21604395  0.83408821  0.94102307    -0.81100
Cd711      Cd  0.22788532  0.75999185  0.96293415     1.59700
Cd712      Cd  0.24105397  0.78756974  0.03201846     1.59600
O713        O  0.20091549  0.73726260  0.99262074    -0.81100
O714        O  0.25264083  0.78791398  0.98819512    -1.91600
Cd715      Cd  0.24839499  0.83083562  0.97532868     1.59900
O716        O  0.22046382  0.74386989  0.04006013    -0.81100
O717        O  0.29046162  0.84753923  0.96234356    -0.79700
C718        C  0.30835541  0.80068091  0.04352634     0.82800
C719        C  0.28047292  0.71349237  0.95963031     0.82500
O720        O  0.31862409  0.80448489  0.95870050    -0.78700
C721        C  0.19387880  0.81609409  0.93454837     0.83300
O722        O  0.31298336  0.77730878  0.02672917    -0.78800
C723        C  0.20294030  0.72950202  0.02075283     0.83400
C724        C  0.20774529  0.84846643  0.02818838     0.83700
O725        O  0.20732557  0.82060278  0.03745016    -0.81200
C726        C  0.39514332  0.95874546  0.86048056     0.86300
C727        C  0.41272705  0.97963052  0.88382600    -0.54000
C728        C  0.43185625  0.96346328  0.90366425     0.09200
C729        C  0.43074926  0.92782142  0.89833254     0.20200
C730        C  0.42126046  0.94117714  0.84474075    -0.54700
C731        C  0.43850085  0.92261876  0.86353587     0.09300
C732        C  0.37843473  0.93592889  0.88123725    -0.54200
C733        C  0.39643134  0.91959795  0.90061649     0.09900
H734        H  0.41052386  0.00446375  0.88492819     0.14400
H735        H  0.44573504  0.91454149  0.91436251     0.00100
H736        H  0.42325837  0.94076044  0.81986993     0.14700
H737        H  0.35374843  0.93190555  0.87975998     0.14500
C738        C  0.62143150  0.89306135  0.94344035     0.86300
C739        C  0.63956751  0.91308039  0.92121351    -0.54000
C740        C  0.62277150  0.93353285  0.90485395     0.09200
C741        C  0.58825345  0.93415385  0.91360048     0.20200
C742        C  0.60467791  0.91656478  0.96501819    -0.54700
C743        C  0.58697966  0.93802022  0.94939616     0.09300
C744        C  0.59477468  0.87985848  0.92430207    -0.54200
C745        C  0.57766788  0.90085402  0.90836347     0.09900
H746        H  0.66395110  0.90946558  0.91668447     0.14400
H747        H  0.57440759  0.95145264  0.90078875     0.00100
H748        H  0.60408017  0.91549979  0.98990134     0.14700
H749        H  0.59007924  0.85530918  0.92306254     0.14500
C750        C  0.45510893  0.86740479  0.10031977     0.86300
C751        C  0.43590866  0.85428492  0.07416362    -0.54000
C752        C  0.41736826  0.87480125  0.05955043     0.09200
C753        C  0.42445188  0.90880650  0.06860936     0.20200
C754        C  0.47643382  0.89088086  0.08306400    -0.54700
C755        C  0.46012814  0.91264715  0.06572371     0.09300
C756        C  0.43424840  0.88836894  0.11913065    -0.54200
C757        C  0.41905544  0.91072822  0.10349596     0.09900
H758        H  0.43408699  0.82973009  0.07016703     0.14400
H759        H  0.41116641  0.92584996  0.05496926     0.00100
H760        H  0.50135904  0.89047902  0.08430810     0.14700
H761        H  0.43226585  0.88589479  0.14410521     0.14500
C762        C  0.37018659  0.11511035  0.04715976     0.86300
C763        C  0.38739556  0.09115816  0.02746509    -0.54000
C764        C  0.40650448  0.07225912  0.04441140     0.09200
C765        C  0.40660452  0.07955976  0.07982626     0.20200
C766        C  0.35384065  0.09562289  0.07188105    -0.54700
C767        C  0.37280366  0.08037675  0.09154130     0.09300
C768        C  0.39596029  0.13191453  0.06532043    -0.54200
C769        C  0.41554027  0.11319351  0.08113301     0.09900
H770        H  0.38652673  0.09078661  0.00237699     0.14400
H771        H  0.42217263  0.06440411  0.09341642     0.00100
H772        H  0.32975217  0.09751693  0.07752629     0.14700
H773        H  0.39780685  0.15681607  0.06679598     0.14500
C774        C  0.54447381  0.15422252  0.90315780     0.86300
C775        C  0.52505679  0.12816699  0.91808493    -0.54000
C776        C  0.54239558  0.10472927  0.93097911     0.09200
C777        C  0.57784464  0.11001460  0.92771360     0.20200
C778        C  0.56510682  0.16447263  0.93014187    -0.54700
C779        C  0.58443718  0.14233704  0.94185142     0.09300
C780        C  0.56542192  0.13730422  0.88069376    -0.54200
C781        C  0.58303365  0.11497302  0.89299745     0.09900
H782        H  0.50010779  0.12842027  0.91906723     0.14400
H783        H  0.59210832  0.09131539  0.93786868     0.00100
H784        H  0.56623203  0.18798607  0.93780540     0.14700
H785        H  0.56734161  0.14355430  0.85637897     0.14500
C786        C  0.61086480  0.06297992  0.12467307     0.86300
C787        C  0.58833283  0.08422639  0.14116433    -0.54000
C788        C  0.56937149  0.10117978  0.12282519     0.09200
C789        C  0.57292814  0.09273397  0.08813350     0.20200
C790        C  0.58954237  0.04116180  0.10579575    -0.54700
C791        C  0.56964820  0.05667424  0.08604504     0.09300
C792        C  0.62637823  0.08142353  0.09941674    -0.54200
C793        C  0.60718135  0.09791857  0.08123068     0.09900
H794        H  0.58932636  0.08734069  0.16605627     0.14400
H795        H  0.55742772  0.10604012  0.07263850     0.00100
H796        H  0.59079096  0.01625879  0.10655988     0.14700
H797        H  0.65127483  0.08321609  0.09741764     0.14500
O798        O  0.47672636  0.98993431  0.92367222    -0.78700
C799        C  0.52844903  0.07807000  0.94830817     0.82300
O800        O  0.56045158  0.95903672  0.99427066    -0.79800
O801        O  0.53189000  0.05855211  0.04623239    -0.81300
O802        O  0.42681870  0.02677423  0.01984732    -0.81100
O803        O  0.43940224  0.97782028  0.95677810    -0.79700
Zn804      Zn  0.51238311  0.00744330  0.95166810     1.55700
O805        O  0.45805032  0.06699130  0.02688230    -0.81100
Cd806      Cd  0.45605969  0.99265309  0.00028420     1.59700
Cd807      Cd  0.52805802  0.98185608  0.02402122     1.59600
O808        O  0.45462089  0.95435519  0.03002554    -0.81100
O809        O  0.49987566  0.00827624  0.99610159    -1.91600
Cd810      Cd  0.50102400  0.05297186  0.00989812     1.59900
O811        O  0.50214268  0.94620815  0.04784473    -0.81100
O812        O  0.51701330  0.08303729  0.97508242    -0.79700
C813        C  0.56420519  0.95930272  0.96475446     0.82800
C814        C  0.45023462  0.97822180  0.92928886     0.82500
O815        O  0.52858431  0.05084354  0.93663025    -0.78700
C816        C  0.43171060  0.05424637  0.02943968     0.83300
O817        O  0.54776356  0.97657101  0.94735464    -0.78800
C818        C  0.47343398  0.93896869  0.04684899     0.83400
C819        C  0.54967307  0.04122054  0.06201893     0.83700
O820        O  0.55109413  0.01196919  0.05689002    -0.81200
O821        O  0.94055533  0.82255299  0.19945165    -0.78700
C822        C  0.96803555  0.80319870  0.29266778     0.82300
O823        O  0.04672035  0.78367714  0.19932951    -0.79800
O824        O  0.98399115  0.71614873  0.27921498    -0.81300
O825        O  0.91890181  0.73390312  0.19461671    -0.81100
O826        O  0.94911466  0.79323043  0.15794190    -0.79700
Zn827      Zn  0.97528150  0.80392691  0.22369749     1.55700
O828        O  0.92703696  0.70845203  0.23718616    -0.81100
Cd829      Cd  0.95882488  0.75281639  0.18083490     1.59700
Cd830      Cd  0.02134306  0.74752469  0.22083532     1.59600
O831        O  0.98432219  0.72002465  0.15754027    -0.81100
O832        O  0.97808846  0.76132579  0.22081466    -1.91600
Cd833      Cd  0.95520306  0.74372794  0.25606572     1.59900
O834        O  0.02295239  0.71053549  0.19037666    -0.81100
O835        O  0.95251092  0.77793714  0.29179211    -0.79700
C836        C  0.03592133  0.81005203  0.19127628     0.82800
C837        C  0.93903144  0.81794356  0.17034355     0.82500
O838        O  0.97795296  0.81517378  0.26785599    -0.78700
C839        C  0.92291682  0.70827490  0.20792168     0.83300
O840        O  0.01001633  0.81958534  0.20063330    -0.78800
C841        C  0.00755870  0.70399663  0.16603521     0.83400
C842        C  0.01269613  0.71610656  0.28414576     0.83700
O843        O  0.03149815  0.73035169  0.26619997    -0.81200
O844        O  0.82548228  0.21104346  0.99890849    -0.78700
C845        C  0.79210193  0.29921320  0.97945657     0.82300
O846        O  0.77549018  0.21034309  0.07981081    -0.79800
O847        O  0.71023807  0.28755931  0.01100379    -0.81300
O848        O  0.72820647  0.18722207  0.95923780    -0.81100
O849        O  0.79588499  0.16923939  0.99537050    -0.79700
Zn850      Zn  0.79818668  0.24277291  0.01751436     1.55700
O851        O  0.70195284  0.23078631  0.96323348    -0.81100
Cd852      Cd  0.75247616  0.18831008  0.99983277     1.59700
Cd853      Cd  0.73997566  0.23336139  0.05470791     1.59600
O854        O  0.72167739  0.16515015  0.02777248    -0.81100
O855        O  0.75682023  0.23152266  0.01280821    -1.91600
Cd856      Cd  0.73553236  0.25888666  0.98440756     1.59900
O857        O  0.70288846  0.20536888  0.05330086    -0.81100
O858        O  0.76755427  0.29017801  0.96543915    -0.79700
C859        C  0.80295157  0.21842421  0.07358988     0.82800
C860        C  0.82207805  0.18245776  0.99355279     0.82500
O861        O  0.80476789  0.28348309  0.00058264    -0.78700
C862        C  0.70278599  0.20176543  0.95783146     0.83300
O863        O  0.80655714  0.24481702  0.06195871    -0.78800
C864        C  0.70040749  0.17793116  0.04359151     0.83400
C865        C  0.70729926  0.29367480  0.03956401     0.83700
O866        O  0.72074869  0.27780400  0.06084167    -0.81200
O867        O  0.19635873  0.06437725  0.69119337    -0.78700
C868        C  0.29098181  0.03777901  0.71526105     0.82300
O869        O  0.20232399  0.95629243  0.72395255    -0.79800
O870        O  0.26728525  0.01568460  0.80469855    -0.81300
O871        O  0.17912942  0.06609881  0.79546490    -0.81100
O872        O  0.15527391  0.05451757  0.72034312    -0.79700
Zn873      Zn  0.22270676  0.03032726  0.70870714     1.55700
O874        O  0.22903823  0.07608767  0.80506482    -0.81100
Cd875      Cd  0.17670637  0.03674527  0.75928580     1.59700
Cd876      Cd  0.22201620  0.98029383  0.76187158     1.59600
O877        O  0.15351676  0.00084819  0.77879697    -0.81100
O878        O  0.21825158  0.02405605  0.75073846    -1.91600
Cd879      Cd  0.25014027  0.04572973  0.77344881     1.59900
O880        O  0.19290561  0.97575529  0.79959553    -0.81100
O881        O  0.28860989  0.04906740  0.74275954    -0.79700
C882        C  0.19606588  0.96777504  0.69735271     0.82800
C883        C  0.16743970  0.06592577  0.69614147     0.82500
O884        O  0.26708679  0.03062748  0.69975774    -0.78700
C885        C  0.20039290  0.07723628  0.81229904     0.83300
O886        O  0.20411370  0.99466769  0.68975776    -0.78800
C887        C  0.16486651  0.98454260  0.80055066     0.83400
C888        C  0.28138318  0.99173691  0.79610469     0.83700
O889        O  0.26877041  0.97383981  0.77603252    -0.81200
C890        C  0.11594991  0.13876536  0.96016051     0.86300
C891        C  0.10270170  0.11259097  0.98044265    -0.54000
C892        C  0.09170244  0.08774684  0.96360633     0.09200
C893        C  0.09603090  0.09165942  0.92780117     0.20200
C894        C  0.14025681  0.12320161  0.94033271    -0.54700
C895        C  0.13035692  0.10038122  0.92197688     0.09300
C896        C  0.08835535  0.14563785  0.93879487    -0.54200
C897        C  0.07835250  0.12149364  0.92106645     0.09900
H898        H  0.09806272  0.11515916  0.00492119     0.14400
H899        H  0.08797547  0.07151428  0.91425778     0.00100
H900        H  0.16327698  0.13271080  0.93761445     0.14700
H901        H  0.07795858  0.16833312  0.93722968     0.14500
C902        C  0.11341270  0.95915654  0.13254830     0.86300
C903        C  0.09050229  0.97877431  0.11341361    -0.54000
C904        C  0.07376351  0.96238539  0.09180697     0.09200
C905        C  0.08211418  0.92716511  0.09143731     0.20200
C906        C  0.09397144  0.93337043  0.14616513    -0.54700
C907        C  0.07868137  0.91539621  0.12539827     0.09300
C908        C  0.13288476  0.94208118  0.10814607    -0.54200
C909        C  0.11720695  0.92582453  0.08630055     0.09900
H910        H  0.08863654  0.00357692  0.11587463     0.14400
H911        H  0.06888192  0.91436720  0.07387302     0.00100
H912        H  0.09559464  0.92643423  0.17004764     0.14700
H913        H  0.15785886  0.94127001  0.10919997     0.14500
C914        C  0.95436922  0.14298419  0.11482188     0.86300
C915        C  0.97242430  0.12115416  0.09340723    -0.54000
C916        C  0.95427099  0.10193650  0.07594139     0.09200
C917        C  0.91884510  0.10742005  0.08096811     0.20200
C918        C  0.93203784  0.16010673  0.09329320    -0.54700
C919        C  0.91285848  0.14234973  0.07581502     0.09300
C920        C  0.93290342  0.12205342  0.13327687    -0.54200
C921        C  0.91403529  0.10408663  0.11604745     0.09900
H922        H  0.99739320  0.12019372  0.09292734     0.14400
H923        H  0.90378442  0.09228497  0.06684044     0.00100
H924        H  0.92659294  0.18415693  0.09648668     0.14700
H925        H  0.93083167  0.12309998  0.15830060     0.14500
C926        C  0.86401846  0.90746210  0.03056244     0.86300
C927        C  0.84497694  0.92709297  0.05332282    -0.54000
C928        C  0.86110048  0.94184172  0.07590655     0.09200
C929        C  0.89637391  0.93663694  0.07239041     0.20200
C930        C  0.88763250  0.92956578  0.01663638    -0.54700
C931        C  0.90539063  0.94471137  0.03818959     0.09300
C932        C  0.88314282  0.88673389  0.05201060    -0.54200
C933        C  0.89950579  0.90117221  0.07461924     0.09900
H934        H  0.82070758  0.92317773  0.05668826     0.14400
H935        H  0.90937222  0.95018006  0.08949468     0.00100
H936        H  0.89101305  0.93181721  0.99188320     0.14700
H937        H  0.88177727  0.86178991  0.05087984     0.14500
C938        C  0.03957358  0.89581300  0.87975935     0.86300
C939        C  0.06427099  0.87507951  0.89429791    -0.54000
C940        C  0.08469900  0.88935044  0.91285413     0.09200
C941        C  0.07757118  0.92425045  0.91732297     0.20200
C942        C  0.02334246  0.91164152  0.90699591    -0.54700
C943        C  0.04281912  0.92741713  0.92650899     0.09300
C944        C  0.05872102  0.92143820  0.86467730    -0.54200
C945        C  0.07800664  0.93677239  0.88424184     0.09900
H946        H  0.06831217  0.85141205  0.88713137     0.14400
H947        H  0.09390165  0.93617719  0.93305246     0.00100
H948        H  0.99845168  0.91249307  0.90901101     0.14700
H949        H  0.05991793  0.92513371  0.83995737     0.14500
C950        C  0.88304692  0.07205100  0.88536429     0.86300
C951        C  0.89954161  0.09635704  0.86672322    -0.54000
C952        C  0.92203573  0.11143348  0.88150331     0.09200
C953        C  0.92818220  0.09978500  0.91475495     0.20200
C954        C  0.90891428  0.04963735  0.89671806    -0.54700
C955        C  0.93231666  0.06410641  0.91331509     0.09300
C956        C  0.87380687  0.08792617  0.91593808    -0.54200
C957        C  0.89708889  0.10282681  0.93083364     0.09900
H958        H  0.89258781  0.10273341  0.84334906     0.14400
H959        H  0.94695595  0.11237931  0.92675502     0.00100
H960        H  0.90652452  0.02482001  0.89608406     0.14700
H961        H  0.85082651  0.08724724  0.92563764     0.14500
O962        O  0.97754214  0.08342992  0.02892474    -0.78700
C963        C  0.06756029  0.06659927  0.97660261     0.82300
O964        O  0.95173192  0.01872656  0.94058076    -0.79800
O965        O  0.05029557  0.96602638  0.96550650    -0.81300
O966        O  0.02568992  0.98661274  0.07488130    -0.81100
O967        O  0.97136972  0.04964972  0.06734023    -0.79700
Zn968      Zn  0.99758246  0.05892687  0.99267427     1.55700
O969        O  0.06403299  0.98211465  0.04068282    -0.81100
Cd970      Cd  0.98807940  0.00707671  0.04851457     1.59700
Cd971      Cd  0.97413427  0.98975487  0.97411991     1.59600
O972        O  0.94933086  0.97702421  0.04982145    -0.81100
O973        O  0.00149150  0.01456034  0.00360150    -1.91600
Cd974      Cd  0.04656241  0.00118039  0.99879405     1.59900
O975        O  0.93929538  0.96702844  0.00009946    -0.81100
O976        O  0.07418511  0.03847076  0.98271637    -0.79700
C977        C  0.95245628  0.04803468  0.93702734     0.82800
C978        C  0.96817813  0.07689507  0.05621250     0.82500
O979        O  0.04016497  0.07703157  0.98033232    -0.78700
C980        C  0.05323394  0.97788228  0.06791486     0.83300
O981        O  0.96891715  0.06472567  0.95495991    -0.78800
C982        C  0.93275753  0.96413818  0.02892730     0.83400
C983        C  0.03096389  0.95106636  0.94904132     0.83700
O984        O  0.00195292  0.95686444  0.95035846    -0.81200
O985        O  0.32832340  0.32381015  0.01028128    -0.78700
C986        C  0.30112242  0.22702497  0.02910427     0.82300
O987        O  0.27422513  0.31848366  0.93398800    -0.79800
O988        O  0.21254181  0.24152455  0.00669274    -0.81300
O989        O  0.23521672  0.33479919  0.06207497    -0.81100
O990        O  0.29484807  0.36216957  0.01734757    -0.79700
Zn991      Zn  0.30179155  0.28844781  0.99666718     1.55700
O992        O  0.21187583  0.28960041  0.06017844    -0.81100
Cd993      Cd  0.25307210  0.33923576  0.01857048     1.59700
Cd994      Cd  0.23921701  0.29649664  0.96111684     1.59600
O995        O  0.21713039  0.36162671  0.99628884    -0.81100
O996        O  0.25918261  0.29705561  0.00268618    -1.91600
Cd997      Cd  0.24269597  0.26641705  0.03143978     1.59900
O998        O  0.20276083  0.32659285  0.96195896    -0.81100
O999        O  0.27551138  0.23227138  0.04288674    -0.79700
C1000       C  0.30199677  0.31038962  0.93934393     0.82800
C1001       C  0.32246884  0.35225560  0.01494568     0.82500
O1002       O  0.31344888  0.24745553  0.01227274    -0.78700
C1003       C  0.21098426  0.31862525  0.06475901     0.83300
O1004       O  0.30604409  0.28449992  0.95189722    -0.78800
C1005       C  0.19771074  0.35144726  0.97662967     0.83400
C1006       C  0.20482131  0.23704616  0.97876184     0.83700
O1007       O  0.21646451  0.25299520  0.95653003    -0.81200
O1008       O  0.79327087  0.48530597  0.67366004    -0.78700
C1009       C  0.70929101  0.49464656  0.70429804     0.82300
O1010       O  0.78797481  0.59201173  0.71118987    -0.79800
O1011       O  0.72984727  0.51600117  0.78945210    -0.81300
O1012       O  0.83282331  0.48907250  0.77024142    -0.81100
O1013       O  0.83855744  0.49951306  0.69326564    -0.79700
Zn1014     Zn  0.76999199  0.51935467  0.69390329     1.55700
O1015       O  0.78789018  0.46837098  0.78457005    -0.81100
Cd1016     Cd  0.82374983  0.51765107  0.73482131     1.59700
Cd1017     Cd  0.77257377  0.56525042  0.74945750     1.59600
O1018       O  0.84540125  0.55657050  0.75042900    -0.81100
O1019       O  0.77957400  0.52353474  0.73493950    -1.91600
Cd1020     Cd  0.75591586  0.49352975  0.75750332     1.59900
O1021       O  0.80746856  0.57025587  0.78173934    -0.81100
O1022       O  0.71988019  0.47894057  0.72727765    -0.79700
C1023       C  0.79397467  0.58214142  0.68379917     0.82800
C1024       C  0.82253077  0.48480014  0.67341155     0.82500
O1025       O  0.72610568  0.51409916  0.69053246    -0.78700
C1026       C  0.81693097  0.47275549  0.78848515     0.83300
O1027       O  0.78539329  0.55597032  0.67422751    -0.78800
C1028       C  0.83627451  0.56703405  0.77638424     0.83400
C1029       C  0.71709260  0.54235500  0.78868631     0.83700
O1030       O  0.72785245  0.56438637  0.77180420    -0.81200
O1031       O  0.03205599  0.21161465  0.73029211    -0.78700
C1032       C  0.04989216  0.20303343  0.83300344     0.82300
O1033       O  0.95494146  0.23257481  0.79721291    -0.79800
O1034       O  0.01353557  0.30262275  0.84395134    -0.81300
O1035       O  0.07423040  0.31530657  0.76989707    -0.81100
O1036       O  0.04484425  0.25570000  0.70799721    -0.79700
Zn1037     Zn  0.02943857  0.22062818  0.77454512     1.55700
O1038       O  0.08165702  0.29016057  0.81398764    -0.81100
Cd1039     Cd  0.04359860  0.28468934  0.74818871     1.59700
Cd1040     Cd  0.97817145  0.27245372  0.78033709     1.59600
O1041       O  0.01346460  0.31670686  0.73376576    -0.81100
O1042       O  0.02249869  0.26250803  0.78095440    -1.91600
Cd1043     Cd  0.03993961  0.27049367  0.82142768     1.59900
O1044       O  0.96962041  0.29102435  0.73538070    -0.81100
O1045       O  0.04133496  0.22897857  0.84374604    -0.79700
C1046       C  0.96703076  0.20566648  0.79955080     0.82800
C1047       C  0.03576586  0.22756639  0.70608361     0.82500
O1048       O  0.05822106  0.20054012  0.80475586    -0.78700
C1049       C  0.08208600  0.31497529  0.79846273     0.83300
O1050       O  0.99335135  0.20034375  0.78883832    -0.78800
C1051       C  0.98720182  0.31102019  0.72251395     0.83400
C1052       C  0.98840670  0.31581683  0.83647146     0.83700
O1053       O  0.97282595  0.30745417  0.81273789    -0.81200
C1054       C  0.87618519  0.39649137  0.94364138     0.86300
C1055       C  0.89340093  0.41939040  0.96526264    -0.54000
C1056       C  0.91277006  0.43919743  0.94937685     0.09200
C1057       C  0.91179876  0.43412027  0.91331027     0.20200
C1058       C  0.85939212  0.41765958  0.92138539    -0.54700
C1059       C  0.87722574  0.43569178  0.90339177     0.09300
C1060       C  0.90270244  0.38094369  0.92636318    -0.54200
C1061       C  0.92063108  0.40009686  0.90968719     0.09900
H1062       H  0.89206301  0.41890881  0.99029409     0.14400
H1063       H  0.92746416  0.44911208  0.90017623     0.00100
H1064       H  0.83459482  0.41614082  0.91818952     0.14700
H1065       H  0.90619774  0.35613465  0.92626629     0.14500
C1066       C  0.12681182  0.46662262  0.88403591     0.86300
C1067       C  0.11342641  0.44212993  0.86292601    -0.54000
C1068       C  0.09240893  0.42352095  0.87562205     0.09200
C1069       C  0.08334577  0.43329256  0.90910759     0.20200
C1070       C  0.09874165  0.48587923  0.89472489    -0.54700
C1071       C  0.07579575  0.46863735  0.90839838     0.09300
C1072       C  0.13606625  0.45022193  0.91429563    -0.54200
C1073       C  0.11375790  0.43242125  0.92717591     0.09900
H1074       H  0.12285890  0.43730840  0.84008008     0.14400
H1075       H  0.06504854  0.41879717  0.91940442     0.00100
H1076       H  0.09907363  0.51077298  0.89631145     0.14700
H1077       H  0.15885226  0.45167567  0.92449662     0.14500
C1078       C  0.94953075  0.64585362  0.89166310     0.86300
C1079       C  0.92209315  0.65438546  0.91213501    -0.54000
C1080       C  0.90388213  0.63033285  0.92084086     0.09200
C1081       C  0.91841347  0.59865765  0.91221329     0.20200
C1082       C  0.96888636  0.62422159  0.91187149    -0.54700
C1083       C  0.95285291  0.59955925  0.92303703     0.09300
C1084       C  0.93504902  0.62487873  0.86658982    -0.54200
C1085       C  0.91855297  0.60011697  0.87665749     0.09900
H1086       H  0.91306634  0.67748953  0.91358189     0.14400
H1087       H  0.90760889  0.57813320  0.92230715     0.00100
H1088       H  0.99311577  0.62793286  0.91675534     0.14700
H1089       H  0.93526773  0.63141109  0.84234782     0.14500
C1090       C  0.04805021  0.38297132  0.10517001     0.86300
C1091       C  0.02933916  0.39739921  0.07835068    -0.54000
C1092       C  0.04630466  0.41660026  0.05956047     0.09200
C1093       C  0.08132823  0.41699755  0.06810789     0.20200
C1094       C  0.07523891  0.36619334  0.09009026    -0.54700
C1095       C  0.09357793  0.38340511  0.07217745     0.09300
C1096       C  0.06358821  0.41118337  0.12063252    -0.54200
C1097       C  0.08014519  0.42940387  0.10094890     0.09900
H1098       H  0.00440300  0.39627174  0.07737061     0.14400
H1099       H  0.09561125  0.43094312  0.05221646     0.00100
H1100       H  0.08324159  0.34359936  0.09724922     0.14700
H1101       H  0.06365043  0.41531192  0.14536266     0.14500
C1102       C  0.89566540  0.55738802  0.13184395     0.86300
C1103       C  0.91684389  0.53826399  0.11068279    -0.54000
C1104       C  0.93462204  0.55563910  0.09105133     0.09200
C1105       C  0.93028578  0.59138781  0.09601451     0.20200
C1106       C  0.91727889  0.57978980  0.14890942    -0.54700
C1107       C  0.93453195  0.59912000  0.13108662     0.09300
C1108       C  0.87813544  0.57854529  0.10954270    -0.54200
C1109       C  0.89563733  0.59668114  0.09110145     0.09900
H1110       H  0.91624038  0.51330488  0.10983875     0.14400
H1111       H  0.94580756  0.60432479  0.08085990     0.00100
H1112       H  0.91450766  0.58460933  0.17325163     0.14700
H1113       H  0.85328560  0.58120508  0.11019493     0.14500
C1114       C  0.11464455  0.63418548  0.05501801     0.86300
C1115       C  0.13191233  0.61641388  0.07959790    -0.54000
C1116       C  0.11548968  0.59519156  0.09493449     0.09200
C1117       C  0.08196751  0.59182440  0.08283730     0.20200
C1118       C  0.10230318  0.60878091  0.03265677    -0.54700
C1119       C  0.08463624  0.58656535  0.04718284     0.09300
C1120       C  0.08516341  0.64607922  0.06994807    -0.54200
C1121       C  0.06823180  0.62448392  0.08495993     0.09900
H1122       H  0.15563620  0.62161666  0.08589406     0.14400
H1123       H  0.06827773  0.57421335  0.09523781     0.00100
H1124       H  0.10440899  0.60984224  0.00769730     0.14700
H1125       H  0.07823274  0.67003265  0.06890367     0.14500
O1126       O  0.03576117  0.57572282  0.02385478    -0.78700
C1127       C  0.96755186  0.57535593  0.94309194     0.82300
O1128       O  0.95303501  0.51251429  0.05911805    -0.79800
O1129       O  0.95361050  0.47538513  0.94626888    -0.81300
O1130       O  0.06536665  0.48818846  0.95895923    -0.81100
O1131       O  0.07081320  0.53806364  0.02328463    -0.79700
Zn1132     Zn  0.99481027  0.55683369  0.00789584     1.55700
O1133       O  0.02669730  0.48903862  0.92476523    -0.81100
Cd1134     Cd  0.04584037  0.50162058  0.00152399     1.59700
Cd1135     Cd  0.97385213  0.48427576  0.02294341     1.59600
O1136       O  0.05030615  0.46185414  0.02848031    -0.81100
O1137       O  0.00053835  0.51273947  0.99623092    -1.91600
Cd1138     Cd  0.98920958  0.50705912  0.95081701     1.59900
O1139       O  0.00278389  0.44839080  0.04239001    -0.81100
O1140       O  0.97144126  0.54831181  0.93196822    -0.79700
C1141       C  0.95238899  0.54187184  0.06402376     0.82800
C1142       C  0.06285495  0.56571769  0.03004009     0.82500
O1143       O  0.97585153  0.58194503  0.97087018    -0.78700
C1144       C  0.05473683  0.48300860  0.93179823     0.83300
O1145       O  0.96623568  0.56028684  0.04573862    -0.78800
C1146       C  0.03204375  0.44336701  0.04213917     0.83400
C1147       C  0.93630774  0.46007712  0.96435116     0.83700
O1148       O  0.93974858  0.46164352  0.99394826    -0.81200
O1149       O  0.52705345  0.70987424  0.22944650    -0.78700
C1150       C  0.55417242  0.70475908  0.32957352     0.82300
O1151       O  0.44832273  0.72082899  0.28786562    -0.79800
O1152       O  0.48528613  0.78678825  0.34391229    -0.81300
O1153       O  0.55925124  0.81497163  0.27376830    -0.81100
O1154       O  0.53938544  0.75470896  0.20851827    -0.79700
Zn1155     Zn  0.52484613  0.71858544  0.27337504     1.55700
O1156       O  0.55311655  0.79860722  0.32283979    -0.81100
Cd1157     Cd  0.53294989  0.78323531  0.24859101     1.59700
Cd1158     Cd  0.46705302  0.76362437  0.27246306     1.59600
O1159       O  0.50139854  0.81231610  0.23089509    -0.81100
O1160       O  0.51150848  0.75855595  0.27885159    -1.91600
Cd1161     Cd  0.52120953  0.76517424  0.32177509     1.59900
O1162       O  0.46380330  0.77891189  0.22506823    -0.81100
O1163       O  0.53649308  0.72475185  0.34200363    -0.79700
C1164       C  0.46371841  0.69654393  0.29523824     0.82800
C1165       C  0.53102650  0.72643816  0.20575979     0.82500
O1166       O  0.55964114  0.70520664  0.30060579    -0.78700
C1167       C  0.56145142  0.81859969  0.30317705     0.83300
O1168       O  0.49202899  0.69452170  0.28949087    -0.78800
C1169       C  0.48066074  0.80068623  0.21410051     0.83400
C1170       C  0.46397870  0.80312864  0.33183830     0.83700
O1171       O  0.45488477  0.79867823  0.30393701    -0.81200
O1172       O  0.44797023  0.31386822  0.68807760    -0.78700
C1173       C  0.46336001  0.30970291  0.78373067     0.82300
O1174       O  0.55572952  0.28730165  0.70656632    -0.79800
O1175       O  0.48420193  0.22211640  0.78419372    -0.81300
O1176       O  0.43089326  0.23167365  0.68759963    -0.81100
O1177       O  0.47103998  0.28537247  0.65252920    -0.79700
Zn1178     Zn  0.48004709  0.30163754  0.71841836     1.55700
O1179       O  0.43266578  0.20974549  0.73309395    -0.81100
Cd1180     Cd  0.47375079  0.24738894  0.68028974     1.59700
Cd1181     Cd  0.53038920  0.25021358  0.72870218     1.59600
O1182       O  0.50265684  0.21332835  0.66440016    -0.81100
O1183       O  0.48663258  0.25979291  0.72150928    -1.91600
Cd1184     Cd  0.45842131  0.24586797  0.75397459     1.59900
O1185       O  0.53948409  0.21237067  0.70069861    -0.81100
O1186       O  0.44879972  0.28390737  0.78403148    -0.79700
C1187       C  0.54323017  0.31098528  0.69362889     0.82800
C1188       C  0.45613588  0.30949003  0.66010490     0.82500
O1189       O  0.47670858  0.31881500  0.75949159    -0.78700
C1190       C  0.43022674  0.20741266  0.70365998     0.83300
O1191       O  0.51548154  0.31796875  0.69849588    -0.78800
C1192       C  0.52746002  0.20217713  0.67568555     0.83400
C1193       C  0.51209898  0.22173905  0.79266578     0.83700
O1194       O  0.53339179  0.23480116  0.77644965    -0.81200
O1195       O  0.76117050  0.05264018  0.80517709    -0.78700
C1196       C  0.66194401  0.07045124  0.79772824     0.82300
O1197       O  0.70619837  0.96957072  0.78086235    -0.79800
O1198       O  0.66259039  0.02443551  0.70079446    -0.81300
O1199       O  0.73120550  0.09036853  0.69614273    -0.81100
O1200       O  0.78516995  0.07532483  0.76595520    -0.79700
Zn1201     Zn  0.72000596  0.04567566  0.78932172     1.55700
O1202       O  0.68846539  0.09408585  0.72241434    -0.81100
Cd1203     Cd  0.75283808  0.06318830  0.73058649     1.59700
Cd1204     Cd  0.72388617  0.99247707  0.74034011     1.59600
O1205       O  0.77760591  0.03430550  0.70461386    -0.81100
O1206       O  0.72037583  0.03680523  0.74796381    -1.91600
Cd1207     Cd  0.67922490  0.05095409  0.73663656     1.59900
O1208       O  0.76785754  0.98572515  0.71951571    -0.81100
O1209       O  0.65224311  0.05389865  0.77545332    -0.79700
C1210       C  0.69734472  0.98304026  0.80587884     0.82800
C1211       C  0.78477225  0.06533100  0.79391769     0.82500
O1212       O  0.69010267  0.07840573  0.79916465    -0.78700
C1213       C  0.70218401  0.09532921  0.69676862     0.83300
O1214       O  0.70295244  0.01118388  0.81021159    -0.78800
C1215       C  0.78294799  0.00564620  0.70357961     0.83400
C1216       C  0.67183754  0.99832575  0.69099237     0.83700
O1217       O  0.69384693  0.98392819  0.70433349    -0.81200
C1218       C  0.39636210  0.04618573  0.64139575     0.86300
C1219       C  0.41781895  0.02887879  0.61904017    -0.54000
C1220       C  0.43301936  0.04777355  0.59873939     0.09200
C1221       C  0.42518633  0.08270319  0.60292717     0.20200
C1222       C  0.41701181  0.07062038  0.65678264    -0.54700
C1223       C  0.43152834  0.09089914  0.63741736     0.09300
C1224       C  0.37540556  0.06558054  0.62052074    -0.54200
C1225       C  0.38984770  0.08450894  0.60052448     0.09900
H1226       H  0.41996323  0.00398405  0.61854158     0.14400
H1227       H  0.43750165  0.09693319  0.58582247     0.00100
H1228       H  0.41577545  0.07519004  0.68123771     0.14700
H1229       H  0.35062390  0.06704845  0.62383961     0.14500
C1230       C  0.56736127  0.88388235  0.61451508     0.86300
C1231       C  0.54492082  0.90332932  0.59399975    -0.54000
C1232       C  0.55937793  0.92158278  0.57226741     0.09200
C1233       C  0.59529738  0.91811665  0.57316341     0.20200
C1234       C  0.58632874  0.86592569  0.59101349    -0.54700
C1235       C  0.60204529  0.88305746  0.56989211     0.09300
C1236       C  0.58853180  0.90819324  0.62803246    -0.54200
C1237       C  0.60390071  0.92521286  0.60703719     0.09900
H1238       H  0.52020767  0.90424236  0.59708474     0.14400
H1239       H  0.60761390  0.93268908  0.55617394     0.00100
H1240       H  0.58924966  0.84120965  0.59307463     0.14700
H1241       H  0.59121994  0.91191854  0.65276401     0.14500
C1242       C  0.62425105  0.13282806  0.54206181     0.86300
C1243       C  0.64515282  0.11414971  0.56368279    -0.54000
C1244       C  0.63083528  0.09438305  0.58317606     0.09200
C1245       C  0.59533406  0.09457991  0.57874119     0.20200
C1246       C  0.60464915  0.10885642  0.52455807    -0.54700
C1247       C  0.58888373  0.08886649  0.54353416     0.09300
C1248       C  0.60147298  0.14802181  0.56472785    -0.54200
C1249       C  0.58658238  0.12850253  0.58398411     0.09900
H1250       H  0.66903063  0.12042521  0.56747453     0.14400
H1251       H  0.58343479  0.07840618  0.59448240     0.00100
H1252       H  0.60242138  0.10866038  0.49955152     0.14700
H1253       H  0.59944846  0.17266527  0.56825462     0.14500
C1254       C  0.37423863  0.89676033  0.45510569     0.86300
C1255       C  0.39677153  0.91604762  0.47506210    -0.54000
C1256       C  0.41745747  0.93290354  0.45781670     0.09200
C1257       C  0.41321515  0.92851649  0.42181368     0.20200
C1258       C  0.35952374  0.92126718  0.43446721    -0.54700
C1259       C  0.37874872  0.93649107  0.41512118     0.09300
C1260       C  0.39556781  0.87756520  0.43462606    -0.54200
C1261       C  0.41516068  0.89337174  0.41659473     0.09900
H1262       H  0.39654504  0.91754861  0.49999988     0.14400
H1263       H  0.42959004  0.94197199  0.40759469     0.00100
H1264       H  0.33466839  0.92255212  0.43198474     0.14700
H1265       H  0.39356877  0.85264619  0.43269797     0.14500
C1266       C  0.61563726  0.97217378  0.37756484     0.86300
C1267       C  0.59957163  0.94763970  0.35797674    -0.54000
C1268       C  0.58049038  0.92885424  0.37319082     0.09200
C1269       C  0.57643095  0.93764787  0.40768818     0.20200
C1270       C  0.58947913  0.99071117  0.39298254    -0.54700
C1271       C  0.56939681  0.97278219  0.40983066     0.09300
C1272       C  0.62957967  0.95325725  0.40464022    -0.54200
C1273       C  0.60888707  0.93591235  0.42074523     0.09900
H1274       H  0.60638364  0.94181968  0.33450381     0.14400
H1275       H  0.55979393  0.92268942  0.41997492     0.00100
H1276       H  0.58926520  0.01568336  0.39373228     0.14700
H1277       H  0.65401535  0.95060102  0.40877868     0.14500
C1278       C  0.43678221  0.13096499  0.39036072     0.86300
C1279       C  0.41946586  0.15041579  0.41354665    -0.54000
C1280       C  0.40540950  0.13504833  0.43674011     0.09200
C1281       C  0.41126780  0.09958872  0.43524314     0.20200
C1282       C  0.46052446  0.11297250  0.41078251    -0.54700
C1283       C  0.44708184  0.09598111  0.43434817     0.09300
C1284       C  0.41508697  0.10579186  0.37966581    -0.54200
C1285       C  0.40131566  0.08954330  0.40239320     0.09900
H1286       H  0.41690226  0.17508955  0.41034082     0.14400
H1287       H  0.39974034  0.08637317  0.45382686     0.00100
H1288       H  0.48504044  0.11218507  0.40629304     0.14700
H1289       H  0.41228446  0.09981740  0.35537674     0.14500
O1290       O  0.53231114  0.93968169  0.52630003    -0.78700
C1291       C  0.44074586  0.95396292  0.47271890     0.82300
O1292       O  0.54818910  0.01425886  0.44089075    -0.79800
O1293       O  0.44785248  0.05541047  0.47171456    -0.81300
O1294       O  0.48085415  0.02912537  0.57770173    -0.81100
O1295       O  0.53825339  0.97260286  0.56555453    -0.79700
Zn1296     Zn  0.50950317  0.96551969  0.49139627     1.55700
O1297       O  0.44008641  0.03214688  0.54599779    -0.81100
Cd1298     Cd  0.51772919  0.01418664  0.54890442     1.59700
Cd1299     Cd  0.52510027  0.03959800  0.47615835     1.59600
O1300       O  0.55199818  0.04853414  0.55133631    -0.81100
O1301       O  0.50250387  0.00909191  0.50439034    -1.91600
Cd1302     Cd  0.45659647  0.01844215  0.50189732     1.59900
O1303       O  0.55782844  0.06548619  0.50294559    -0.81100
O1304       O  0.43210368  0.98043717  0.48267684    -0.79700
C1305       C  0.55012335  0.98521582  0.43575316     0.82800
C1306       C  0.54238175  0.94584380  0.55361494     0.82500
O1307       O  0.46882512  0.94515933  0.47539733    -0.78700
C1308       C  0.45241392  0.03554703  0.57277237     0.83300
O1309       O  0.53699666  0.96580343  0.45344650    -0.78800
C1310       C  0.56513596  0.06624362  0.53181089     0.83400
C1311       C  0.46392413  0.07294639  0.45444205     0.83700
O1312       O  0.49337282  0.07032646  0.45353022    -0.81200
C1313       C  0.69600276  0.08206810  0.64080233    -0.20500
C1314       C  0.68337938  0.09525995  0.66772169    -0.07100
C1315       C  0.65166476  0.10357455  0.66739171     0.13800
C1316       C  0.63424277  0.09934884  0.64033075    -0.20600
C1317       C  0.64725766  0.08800666  0.61301428    -0.07100
C1318       C  0.67835747  0.07799655  0.61376419     0.13800
C1319       C  0.69349103  0.06262596  0.58643685    -0.23900
H1320       H  0.71968251  0.07411914  0.64094385     0.15100
H1321       H  0.61014913  0.10509313  0.64065401     0.15100
C1322       C  0.63559046  0.11732318  0.69511647    -0.23900
H1323       H  0.70241647  0.03969103  0.59347186     0.05300
H1324       H  0.71299067  0.07689921  0.57827994     0.08500
H1325       H  0.67732318  0.05894877  0.56688928     0.08500
H1326       H  0.64842639  0.13776900  0.70350851     0.08500
H1327       H  0.63362575  0.09995674  0.71378015     0.08500
H1328       H  0.61181088  0.12499395  0.68947527     0.05300
C1329       C  0.67016273  0.95599975  0.65271814    -0.20500
C1330       C  0.65702898  0.98353371  0.66361251    -0.07100
C1331       C  0.62958039  0.99444794  0.64933453     0.33000
C1332       C  0.61559620  0.97680254  0.62596892    -0.20600
C1333       C  0.62667730  0.94746116  0.61850211    -0.07100
C1334       C  0.65451749  0.93702505  0.63200408     0.13800
C1335       C  0.66691455  0.90483207  0.62807870    -0.23900
H1336       H  0.69145187  0.94744558  0.66269665     0.15100
H1337       H  0.59372376  0.98419228  0.61630386     0.15100
C1338       C  0.61344763  0.02326691  0.65981187    -0.23900
H1339       H  0.65104860  0.88966111  0.61529479     0.05300
H1340       H  0.68937912  0.90563266  0.61597961     0.08500
H1341       H  0.67053749  0.89416628  0.65112996     0.08500
H1342       H  0.62937089  0.04280072  0.65771546     0.08500
H1343       H  0.60601763  0.02082106  0.68422420     0.08500
H1344       H  0.59272994  0.02848951  0.64561568     0.05300
C1345       C  0.44840049  0.12333367  0.68253354    -0.20500
C1346       C  0.44005013  0.12218180  0.65090469    -0.07100
C1347       C  0.43426870  0.15085195  0.63617714     0.13800
C1348       C  0.42888187  0.17716988  0.65451739    -0.20600
C1349       C  0.43277269  0.17715147  0.68692516    -0.07100
C1350       C  0.44472450  0.15004514  0.70065542     0.13800
C1351       C  0.45439777  0.14890947  0.73410811    -0.23900
H1352       H  0.45677314  0.10258263  0.69363553     0.15100
H1353       H  0.42274295  0.19846758  0.64301631     0.15100
C1354       C  0.43741960  0.15568662  0.60177903    -0.23900
H1355       H  0.46379194  0.12600663  0.74063711     0.05300
H1356       H  0.43434622  0.15364979  0.74925572     0.08500
H1357       H  0.47275204  0.16615135  0.73831417     0.08500
H1358       H  0.41898009  0.14469898  0.58850146     0.08500
H1359       H  0.46003204  0.14699905  0.59381107     0.08500
H1360       H  0.43645574  0.18048844  0.59564654     0.05300
C1361       C  0.52662391  0.15596737  0.64149260    -0.20500
C1362       C  0.54380146  0.17826118  0.65772222    -0.07100
C1363       C  0.57590528  0.18015925  0.65287565     0.13800
C1364       C  0.58932433  0.16178011  0.63009092    -0.20600
C1365       C  0.57178495  0.14133446  0.61208747    -0.07100
C1366       C  0.54045247  0.13709299  0.61892535     0.13800
C1367       C  0.52147041  0.11386252  0.60151602    -0.23900
H1368       H  0.50211454  0.15423032  0.64559090     0.15100
H1369       H  0.61365975  0.16432192  0.62520773     0.15100
C1370       C  0.59596877  0.20300355  0.66980282    -0.23900
H1371       H  0.49749303  0.11308255  0.61015957     0.05300
H1372       H  0.53141431  0.09053766  0.60465793     0.08500
H1373       H  0.52104222  0.11960698  0.57650572     0.08500
H1374       H  0.59582052  0.19798535  0.69496092     0.08500
H1375       H  0.58750430  0.22679201  0.66563443     0.08500
H1376       H  0.62028639  0.20186920  0.66199631     0.05300
C1377       C  0.54752296  0.89395351  0.34295822    -0.20500
C1378       C  0.57541170  0.89820366  0.35864844    -0.07100
C1379       C  0.60038800  0.87755906  0.35217413     0.13800
C1380       C  0.59587368  0.85251973  0.33234652    -0.20600
C1381       C  0.56830609  0.84876851  0.31652888    -0.07100
C1382       C  0.54394846  0.86996114  0.32142487     0.13800
C1383       C  0.51411290  0.86720330  0.30379696    -0.23900
H1384       H  0.52904859  0.91047178  0.34628946     0.15100
H1385       H  0.61414339  0.83573463  0.32909583     0.15100
C1386       C  0.63273140  0.88117034  0.36419161    -0.23900
H1387       H  0.49723712  0.88518957  0.31073221     0.05300
H1388       H  0.50367250  0.84442776  0.30802526     0.08500
H1389       H  0.51860185  0.86958393  0.27865312     0.08500
H1390       H  0.63577449  0.90099265  0.37942009     0.08500
H1391       H  0.64873572  0.88404763  0.34443310     0.08500
H1392       H  0.63959519  0.86027054  0.37726025     0.05300
C1393       C  0.47161492  0.84495092  0.37074086    -0.20500
C1394       C  0.45142492  0.82910680  0.35058976    -0.07100
C1395       C  0.42026468  0.83833281  0.34928762     0.13800
C1396       C  0.40980135  0.86135354  0.36952667    -0.20600
C1397       C  0.42967814  0.87638145  0.39044030    -0.07100
C1398       C  0.46112664  0.86859012  0.39047614     0.13800
C1399       C  0.48322974  0.88420074  0.41227884    -0.23900
H1400       H  0.49574367  0.83853173  0.37134629     0.15100
H1401       H  0.38541029  0.86665937  0.37020550     0.15100
C1402       C  0.39747996  0.82299045  0.32797330    -0.23900
H1403       H  0.50708176  0.87534530  0.40946441     0.05300
H1404       H  0.47606136  0.88024312  0.43657512     0.08500
H1405       H  0.48338843  0.90932951  0.40764961     0.08500
H1406       H  0.39702743  0.79784681  0.33249400     0.08500
H1407       H  0.40393372  0.82724122  0.30354325     0.08500
H1408       H  0.37379792  0.83212317  0.33127509     0.05300
C1409       C  0.11113012  0.34744098  0.83541179    -0.20500
C1410       C  0.08574125  0.34417268  0.81593960    -0.07100
C1411       C  0.06153030  0.36611053  0.81781001     0.13800
C1412       C  0.06248939  0.38941853  0.84061731    -0.20600
C1413       C  0.08823495  0.39306387  0.85995100    -0.07100
C1414       C  0.11363427  0.37243215  0.85582045     0.13800
C1415       C  0.14487464  0.37693359  0.87034935    -0.23900
H1416       H  0.12981056  0.33087861  0.83383144     0.15100
H1417       H  0.04412397  0.40634336  0.84171658     0.15100
C1418       C  0.03512855  0.36565763  0.79514154    -0.23900
H1419       H  0.15196385  0.35568587  0.88250624     0.05300
H1420       H  0.14581779  0.39602608  0.88701331     0.08500
H1421       H  0.16200015  0.38165656  0.85195647     0.08500
H1422       H  0.02378269  0.34292243  0.79513768     0.08500
H1423       H  0.04394488  0.37019284  0.77152015     0.08500
H1424       H  0.01756380  0.38347162  0.80063664     0.05300
C1425       C  0.95807421  0.36383883  0.84038226    -0.20500
C1426       C  0.97713514  0.34221544  0.85510351    -0.07100
C1427       C  0.98348130  0.34575809  0.88710793     0.13800
C1428       C  0.96726100  0.36814639  0.90398052    -0.20600
C1429       C  0.94510061  0.38699353  0.88975848    -0.07100
C1430       C  0.94186903  0.38604830  0.85728816     0.13800
C1431       C  0.91918902  0.40607732  0.84051008    -0.23900
H1432       H  0.95436441  0.36220897  0.81562475     0.15100
H1433       H  0.96998045  0.36928242  0.92889712     0.15100
C1434       C  0.00570650  0.32511513  0.90416524    -0.23900
H1435       H  0.92062757  0.40316512  0.81502533     0.05300
H1436       H  0.92362724  0.43063757  0.84587109     0.08500
H1437       H  0.89576529  0.39933665  0.84757720     0.08500
H1438       H  0.02919699  0.32785882  0.89452247     0.08500
H1439       H  0.99831314  0.30075500  0.90212635     0.08500
H1440       H  0.00694537  0.33088614  0.92917818     0.05300
C1441       C  0.85526185  0.48149990  0.83033175    -0.20500
C1442       C  0.83305660  0.46189710  0.81670103    -0.07100
C1443       C  0.82653418  0.43374400  0.83086041     0.13800
C1444       C  0.84192246  0.42611315  0.85821336    -0.20600
C1445       C  0.86379779  0.44573667  0.87269252    -0.07100
C1446       C  0.87061358  0.47388351  0.85806893     0.13800
C1447       C  0.89295395  0.49654854  0.87178239    -0.23900
H1448       H  0.86019092  0.50341905  0.81952551     0.15100
H1449       H  0.83644368  0.40422677  0.86821799     0.15100
C1450       C  0.80389417  0.41128054  0.81707140    -0.23900
H1451       H  0.91671486  0.48750248  0.87017188     0.05300
H1452       H  0.88692186  0.50153282  0.89622731     0.08500
H1453       H  0.89272542  0.51856778  0.85892057     0.08500
H1454       H  0.81066176  0.40560678  0.79297308     0.08500
H1455       H  0.78039051  0.42133500  0.81721852     0.08500
H1456       H  0.80303005  0.38943611  0.83034490     0.05300
C1457       C  0.84715261  0.57291864  0.83205102    -0.20500
C1458       C  0.85869552  0.57267827  0.80187199    -0.07100
C1459       C  0.89088744  0.57508372  0.79769088     0.13800
C1460       C  0.90989184  0.57984339  0.82363113    -0.20600
C1461       C  0.89797000  0.58350479  0.85381505    -0.07100
C1462       C  0.86592900  0.57745619  0.85801721     0.13800
C1463       C  0.84911833  0.57433119  0.88822464    -0.23900
H1464       H  0.82279270  0.56894280  0.83570911     0.15100
H1465       H  0.93441353  0.58258609  0.82002291     0.15100
C1466       C  0.90554691  0.57401377  0.76611982    -0.23900
H1467       H  0.83782064  0.55144046  0.88902220     0.05300
H1468       H  0.83093311  0.59227287  0.88985001     0.08500
H1469       H  0.86327078  0.57545832  0.90885080     0.08500
H1470       H  0.89527961  0.59204967  0.75108528     0.08500
H1471       H  0.90218955  0.55097707  0.75552762     0.08500
H1472       H  0.93073527  0.57818523  0.76726889     0.05300
C1473       C  0.17659884  0.35698151  0.09012557    -0.20500
C1474       C  0.18072747  0.33460758  0.06739355    -0.07100
C1475       C  0.15662148  0.32957477  0.04579710     0.13800
C1476       C  0.13089544  0.34953782  0.04530643    -0.20600
C1477       C  0.12605928  0.37154232  0.06868723    -0.07100
C1478       C  0.14842160  0.37267762  0.09314809     0.13800
C1479       C  0.14274970  0.38595950  0.12476219    -0.23900
H1480       H  0.19431777  0.35986217  0.10761998     0.15100
H1481       H  0.11287658  0.34586694  0.02830243     0.15100
C1482       C  0.15694318  0.30216009  0.02441479    -0.23900
H1483       H  0.14514662  0.36744120  0.14229508     0.05300
H1484       H  0.11970092  0.39546104  0.12774049     0.08500
H1485       H  0.16006772  0.40385892  0.13005645     0.08500
H1486       H  0.15695095  0.28068559  0.03827653     0.08500
H1487       H  0.17767798  0.30229617  0.00964654     0.08500
H1488       H  0.13618098  0.30158251  0.00945641     0.05300
C1489       C  0.16496002  0.39786508  0.98522930    -0.20500
C1490       C  0.16869424  0.36898310  0.97085470    -0.07100
C1491       C  0.14456345  0.35809918  0.95132918     0.13800
C1492       C  0.12119113  0.37860006  0.94224828    -0.20600
C1493       C  0.12229450  0.40953282  0.95104588    -0.07100
C1494       C  0.14161256  0.41811800  0.97579647     0.13800
C1495       C  0.13815689  0.44905250  0.99127367    -0.23900
H1496       H  0.18130913  0.40547549  0.00257165     0.15100
H1497       H  0.10472037  0.37154028  0.92478024     0.15100
C1498       C  0.14353111  0.32572907  0.93861950    -0.23900
H1499       H  0.15448485  0.45168245  0.01091250     0.05300
H1500       H  0.11442412  0.45137956  0.00045047     0.08500
H1501       H  0.14238283  0.46803436  0.97476406     0.08500
H1502       H  0.14412500  0.30891983  0.95777926     0.08500
H1503       H  0.16318219  0.32146251  0.92286540     0.08500
H1504       H  0.12215931  0.32144104  0.92513240     0.05300
C1505       C  0.96073383  0.13190727  0.84670317    -0.20500
C1506       C  0.93544646  0.13823535  0.86540867    -0.07100
C1507       C  0.91781079  0.16526900  0.85944732     0.13800
C1508       C  0.92808824  0.18673541  0.83751498    -0.20600
C1509       C  0.95361028  0.18049977  0.81875875    -0.07100
C1510       C  0.96896227  0.15146170  0.82237723     0.13800
C1511       C  0.99268343  0.13932296  0.79980725    -0.23900
H1512       H  0.97248323  0.10999524  0.84944205     0.15100
H1513       H  0.91556775  0.20816942  0.83462121     0.15100
C1514       C  0.88704285  0.17145874  0.87423824    -0.23900
H1515       H  0.99845952  0.11477716  0.80416889     0.05300
H1516       H  0.01455178  0.15210883  0.80171378     0.08500
H1517       H  0.98355393  0.14087053  0.77584212     0.08500
H1518       H  0.88786194  0.19360567  0.88698513     0.08500
H1519       H  0.87987069  0.15316420  0.89037650     0.08500
H1520       H  0.86910211  0.17314240  0.85596582     0.05300
C1521       C  0.82915018  0.08290046  0.86633999    -0.20500
C1522       C  0.85522704  0.06303968  0.86475252    -0.07100
C1523       C  0.85872635  0.04571346  0.83689587     0.13800
C1524       C  0.83639058  0.04807692  0.81302448    -0.20600
C1525       C  0.81112635  0.06821304  0.81540175    -0.07100
C1526       C  0.80752071  0.08559402  0.84252744     0.13800
C1527       C  0.78107035  0.10804752  0.84607519    -0.23900
H1528       H  0.82633814  0.09894331  0.88512934     0.15100
H1529       H  0.83846638  0.03384769  0.79254043     0.15100
C1530       C  0.88642881  0.02551880  0.83150374    -0.23900
H1531       H  0.78232199  0.12105124  0.86818566     0.05300
H1532       H  0.75878450  0.09566398  0.84576116     0.08500
H1533       H  0.78148233  0.12494472  0.82684659     0.08500
H1534       H  0.88715406  0.00696685  0.84906130     0.08500
H1535       H  0.90781579  0.03936267  0.83268992     0.08500
H1536       H  0.88570691  0.01437559  0.80836355     0.05300
C1537       C  0.03390252  0.14977058  0.90095873    -0.20500
C1538       C  0.05620813  0.12711350  0.89527914    -0.07100
C1539       C  0.06599747  0.12320117  0.86445086     0.13800
C1540       C  0.06345193  0.14820193  0.84407027    -0.20600
C1541       C  0.04852818  0.17546092  0.85326566    -0.07100
C1542       C  0.03042463  0.17465242  0.88067054     0.13800
C1543       C  0.00804588  0.19981087  0.88947905    -0.23900
H1544       H  0.02352758  0.15100757  0.92371716     0.15100
H1545       H  0.07360315  0.14655259  0.82126469     0.15100
C1546       C  0.07731572  0.09265528  0.85257625    -0.23900
H1547       H  0.99421181  0.19344579  0.91005730     0.05300
H1548       H  0.99171856  0.20406629  0.87016031     0.08500
H1549       H  0.02057716  0.22124509  0.89537780     0.08500
H1550       H  0.05939632  0.07498608  0.85660910     0.08500
H1551       H  0.09866229  0.08539813  0.86410491     0.08500
H1552       H  0.08201895  0.09345220  0.82735404     0.05300
C1553       C  0.13495440  0.19242141  0.94954740    -0.20500
C1554       C  0.13179958  0.16844799  0.97185321    -0.07100
C1555       C  0.15362816  0.16802913  0.99629339     0.13800
C1556       C  0.17712035  0.19032651  0.99731635    -0.20600
C1557       C  0.18073646  0.21291844  0.97410705    -0.07100
C1558       C  0.15901596  0.21390507  0.95000965     0.13800
C1559       C  0.16118490  0.23707878  0.92419572    -0.23900
H1560       H  0.12037554  0.19295809  0.92933162     0.15100
H1561       H  0.19345514  0.18952943  0.01628936     0.15100
C1562       C  0.15330407  0.14360332  0.02093651    -0.23900
H1563       H  0.14193917  0.23487811  0.90737771     0.05300
H1564       H  0.18298787  0.23360098  0.91130967     0.08500
H1565       H  0.16042690  0.26071131  0.93383727     0.08500
H1566       H  0.15659592  0.12051822  0.01042264     0.08500
H1567       H  0.13123285  0.14467721  0.03372660     0.08500
H1568       H  0.17208608  0.14686915  0.03810450     0.05300
C1569       C  0.32142506  0.01723734  0.67055508    -0.20500
C1570       C  0.32150754  0.03147071  0.70005479    -0.07100
C1571       C  0.35053722  0.03648400  0.71416805     0.13800
C1572       C  0.37744628  0.03343004  0.69618797    -0.20600
C1573       C  0.37588414  0.02771397  0.66400886    -0.07100
C1574       C  0.34845134  0.01401106  0.65301983     0.13800
C1575       C  0.34721185  0.99767273  0.62218151    -0.23900
H1576       H  0.29999956  0.00931596  0.66050315     0.15100
H1577       H  0.39943934  0.03770929  0.70706920     0.15100
C1578       C  0.35363152  0.04521067  0.74775666    -0.23900
H1579       H  0.32404744  0.98788547  0.61763649     0.05300
H1580       H  0.36402972  0.97838598  0.62222225     0.08500
H1581       H  0.35267611  0.01329000  0.60277403     0.08500
H1582       H  0.34272067  0.02734280  0.76234687     0.08500
H1583       H  0.34259102  0.06788598  0.75201024     0.08500
H1584       H  0.37811539  0.04705764  0.75496853     0.05300
C1585       C  0.16650676  0.06832846  0.89105259    -0.20500
C1586       C  0.14880466  0.09521410  0.89325944    -0.07100
C1587       C  0.15376075  0.11907735  0.87100619     0.13800
C1588       C  0.17374179  0.11404708  0.84611061    -0.20600
C1589       C  0.19021967  0.08670413  0.84328998    -0.07100
C1590       C  0.18741259  0.06400396  0.86658992     0.13800
C1591       C  0.20599521  0.03472320  0.86505488    -0.23900
H1592       H  0.16427787  0.05084397  0.90875052     0.15100
H1593       H  0.17544206  0.13113557  0.82793336     0.15100
C1594       C  0.13860410  0.15028167  0.87195626    -0.23900
H1595       H  0.20120913  0.01940678  0.88499641     0.05300
H1596       H  0.23091046  0.04033015  0.86523154     0.08500
H1597       H  0.20045892  0.02202097  0.84350908     0.08500
H1598       H  0.15636097  0.16823446  0.87572533     0.08500
H1599       H  0.12126703  0.15260905  0.89010985     0.08500
H1600       H  0.12695350  0.15487344  0.84956354     0.05300
C1601       C  0.11440035  0.98846254  0.82679483    -0.20500
C1602       C  0.14466835  0.97671836  0.82717892    -0.07100
C1603       C  0.15428259  0.95894335  0.85308418     0.13800
C1604       C  0.13237467  0.95047215  0.87536754    -0.20600
C1605       C  0.10124752  0.95801631  0.87152434    -0.07100
C1606       C  0.09273173  0.97950749  0.84868994     0.13800
C1607       C  0.06049369  0.99221934  0.84607216    -0.23900
H1608       H  0.10693788  0.00390155  0.80857684     0.15100
H1609       H  0.13898204  0.93499208  0.89385674     0.15100
C1610       C  0.18681170  0.94729569  0.85693834    -0.23900
H1611       H  0.06127957  0.01774000  0.84678379     0.05300
H1612       H  0.04549604  0.98456980  0.86529303     0.08500
H1613       H  0.05004738  0.98484601  0.82380030     0.08500
H1614       H  0.20309937  0.96685736  0.85782712     0.08500
H1615       H  0.19285907  0.93173489  0.83747778     0.08500
H1616       H  0.18975589  0.93401166  0.87868563     0.05300
C1617       C  0.81799120  0.32946217  0.94007633    -0.20500
C1618       C  0.80853773  0.32733341  0.97048994    -0.07100
C1619       C  0.81996843  0.34856613  0.99269270     0.13800
C1620       C  0.84205570  0.37057168  0.98394099    -0.20600
C1621       C  0.85297819  0.37188830  0.95348440    -0.07100
C1622       C  0.83984730  0.35101670  0.93099994     0.13800
C1623       C  0.84788258  0.34917224  0.89693563    -0.23900
H1624       H  0.80934824  0.31291487  0.92333784     0.15100
H1625       H  0.85058784  0.38673359  0.00095297     0.15100
C1626       C  0.80838663  0.34845424  0.02553347    -0.23900
H1627       H  0.82655552  0.35182054  0.88294025     0.05300
H1628       H  0.85795180  0.32618543  0.89183248     0.08500
H1629       H  0.86419240  0.36637703  0.88839888     0.08500
H1630       H  0.81496504  0.32675030  0.03730402     0.08500
H1631       H  0.78292726  0.35086821  0.02556181     0.08500
H1632       H  0.81813910  0.36777847  0.03922456     0.05300
C1633       C  0.85744049  0.20704763  0.05976293    -0.20500
C1634       C  0.82981433  0.19626641  0.07286383    -0.07100
C1635       C  0.82830022  0.16452653  0.08073043     0.13800
C1636       C  0.85482309  0.14561421  0.07753822    -0.20600
C1637       C  0.88288034  0.15739173  0.06654687    -0.07100
C1638       C  0.88302471  0.18792919  0.05514586     0.13800
C1639       C  0.91064355  0.20150519  0.03910256    -0.23900
H1640       H  0.85913948  0.23070990  0.05207486     0.15100
H1641       H  0.85410226  0.12206535  0.08557911     0.15100
C1642       C  0.79929793  0.15045586  0.09324742    -0.23900
H1643       H  0.90370906  0.21073363  0.01631370     0.05300
H1644       H  0.92900989  0.18421554  0.03487478     0.08500
H1645       H  0.92018927  0.22065933  0.05317357     0.08500
H1646       H  0.78069128  0.15191184  0.07565811     0.08500
H1647       H  0.79218520  0.16271203  0.11463611     0.08500
H1648       H  0.80258354  0.12577571  0.09911297     0.05300
C1649       C  0.85008472  0.13312223  0.99441441    -0.20500
C1650       C  0.84910641  0.16392771  0.98484070    -0.07100
C1651       C  0.87255691  0.17532990  0.96523802     0.13800
C1652       C  0.89394034  0.15452498  0.95278467    -0.20600
C1653       C  0.89047451  0.12289248  0.95749003    -0.07100
C1654       C  0.87075059  0.11243073  0.98102509     0.13800
C1655       C  0.86953675  0.07911546  0.99044962    -0.23900
H1656       H  0.83334813  0.12469364  0.01089410     0.15100
H1657       H  0.91031518  0.16244417  0.93573442     0.15100
C1658       C  0.87315617  0.20832724  0.95434729    -0.23900
H1659       H  0.87371981  0.07723939  0.01572193     0.05300
H1660       H  0.88730062  0.06508229  0.97848102     0.08500
H1661       H  0.84648897  0.06952377  0.98499631     0.08500
H1662       H  0.89290143  0.21277208  0.93876447     0.08500
H1663       H  0.87540602  0.22434618  0.97417177     0.08500
H1664       H  0.85163590  0.21367520  0.94149875     0.05300
C1665       C  0.09060494  0.86788648  0.15651980    -0.20500
C1666       C  0.07047774  0.88333413  0.13572502    -0.07100
C1667       C  0.04255042  0.86892131  0.12789610     0.13800
C1668       C  0.03305354  0.84317453  0.14503391    -0.20600
C1669       C  0.05138928  0.83061252  0.16892890    -0.07100
C1670       C  0.08122182  0.84202102  0.17349091     0.13800
C1671       C  0.10228597  0.82836538  0.19755296    -0.23900
H1672       H  0.11335874  0.87712072  0.16081139     0.15100
H1673       H  0.01055194  0.83337699  0.14054038     0.15100
C1674       C  0.02272630  0.88045783  0.10183291    -0.23900
H1675       H  0.12474154  0.84047882  0.19849810     0.05300
H1676       H  0.10677530  0.80379603  0.19201740     0.08500
H1677       H  0.09144998  0.83007601  0.22072459     0.08500
H1678       H  0.03418178  0.87563065  0.07950046     0.08500
H1679       H  0.01898458  0.90559448  0.10403831     0.08500
H1680       H  0.00010442  0.86867866  0.10119932     0.05300
C1681       C  0.92381325  0.68271527  0.15611211    -0.20500
C1682       C  0.92931586  0.68030451  0.18812007    -0.07100
C1683       C  0.94486125  0.65352315  0.19867419     0.13800
C1684       C  0.95132569  0.62934263  0.17768571    -0.20600
C1685       C  0.94210307  0.63017081  0.14623325    -0.07100
C1686       C  0.93169964  0.65924534  0.13502030     0.13800
C1687       C  0.93156376  0.66875794  0.10160787    -0.23900
H1688       H  0.91453723  0.70403052  0.14691443     0.15100
H1689       H  0.96145737  0.60827999  0.18654344     0.15100
C1690       C  0.95457069  0.64978691  0.23193853    -0.23900
H1691       H  0.94570009  0.68973660  0.09892043     0.05300
H1692       H  0.90810421  0.67539307  0.09420794     0.08500
H1693       H  0.94158220  0.65166323  0.08595251     0.08500
H1694       H  0.93408449  0.65065321  0.24719893     0.08500
H1695       H  0.97092890  0.66829910  0.23838917     0.08500
H1696       H  0.96635613  0.62742110  0.23599135     0.05300
C1697       C  0.94453140  0.86773240  0.14356178    -0.20500
C1698       C  0.92650605  0.84186501  0.15006675    -0.07100
C1699       C  0.89827264  0.83777627  0.13490241     0.13800
C1700       C  0.88978374  0.85839176  0.11166897    -0.20600
C1701       C  0.90922115  0.88277152  0.10242052    -0.07100
C1702       C  0.93588968  0.88876158  0.12035291     0.13800
C1703       C  0.95512124  0.91708867  0.11592871    -0.23900
H1704       H  0.96578371  0.87111209  0.15630832     0.15100
H1705       H  0.86763328  0.85522158  0.10057995     0.15100
C1706       C  0.87709772  0.81168740  0.14328737    -0.23900
H1707       H  0.97592459  0.91659395  0.13081965     0.05300
H1708       H  0.94215704  0.93763700  0.12366022     0.08500
H1709       H  0.96224739  0.91930865  0.09139285     0.08500
H1710       H  0.87084514  0.81342037  0.16811811     0.08500
H1711       H  0.88869995  0.78927799  0.13903311     0.08500
H1712       H  0.85551357  0.81217967  0.12945938     0.05300
C1713       C  0.00992117  0.67876332  0.11465935    -0.20500
C1714       C  0.01728035  0.67771057  0.14629766    -0.07100
C1715       C  0.03369701  0.65179874  0.15778591     0.13800
C1716       C  0.04560090  0.63015332  0.13674672    -0.20600
C1717       C  0.04238705  0.63445934  0.10486297    -0.07100
C1718       C  0.02131831  0.65672262  0.09399949     0.13800
C1719       C  0.01122860  0.65735642  0.06057742    -0.23900
H1720       H  0.99661770  0.69784948  0.10565651     0.15100
H1721       H  0.05970760  0.61137618  0.14507087     0.15100
C1722       C  0.03960803  0.64703038  0.19181408    -0.23900
H1723       H  0.99377862  0.67563151  0.05637183     0.05300
H1724       H  0.00066390  0.63489704  0.05449382     0.08500
H1725       H  0.03081365  0.66160610  0.04484907     0.08500
H1726       H  0.01752183  0.64755417  0.20460750     0.08500
H1727       H  0.05520541  0.66511754  0.20084255     0.08500
H1728       H  0.05083898  0.62447483  0.19638756     0.05300
C1729       C  0.62940260  0.14860008  0.08426193    -0.20500
C1730       C  0.62081237  0.12413802  0.06500767    -0.07100
C1731       C  0.63646636  0.11944421  0.03690824     0.13800
C1732       C  0.66179205  0.13806328  0.02985149    -0.20600
C1733       C  0.67191877  0.16095951  0.05056108    -0.07100
C1734       C  0.65476938  0.16692295  0.07773875     0.13800
C1735       C  0.66445017  0.19032378  0.10175653    -0.23900
H1736       H  0.61929888  0.15041711  0.10697731     0.15100
H1737       H  0.67441769  0.13379151  0.00867872     0.15100
C1738       C  0.62848238  0.09323998  0.01550996    -0.23900
H1739       H  0.64955086  0.18974315  0.12259116     0.05300
H1740       H  0.66267001  0.21387681  0.09212681     0.08500
H1741       H  0.68841510  0.18559587  0.10943587     0.08500
H1742       H  0.60813516  0.08014983  0.02354407     0.08500
H1743       H  0.64834240  0.07718895  0.01375601     0.08500
H1744       H  0.62303452  0.10227065  0.99220280     0.05300
C1745       C  0.60190758  0.07190687  0.86139318    -0.20500
C1746       C  0.60713222  0.10134516  0.87354059    -0.07100
C1747       C  0.62979046  0.12047188  0.85996653     0.13800
C1748       C  0.64718682  0.10927020  0.83554953    -0.20600
C1749       C  0.64137484  0.08041693  0.82264089    -0.07100
C1750       C  0.61809684  0.06152539  0.83528050     0.13800
C1751       C  0.60949379  0.03110437  0.82093306    -0.23900
H1752       H  0.58340548  0.05810815  0.87076762     0.15100
H1753       H  0.66473286  0.12391857  0.82557908     0.15100
C1754       C  0.63512343  0.15362073  0.86886410    -0.23900
H1755       H  0.59191403  0.01882654  0.83480186     0.05300
H1756       H  0.62997976  0.01605349  0.81902051     0.08500
H1757       H  0.59981652  0.03499096  0.79747247     0.08500
H1758       H  0.62102226  0.16120550  0.88857239     0.08500
H1759       H  0.65965635  0.15700060  0.87510193     0.08500
H1760       H  0.62952321  0.16872614  0.84892351     0.05300
C1761       C  0.64230611  0.13907104  0.94117076    -0.20500
C1762       C  0.61556776  0.15262018  0.95358750    -0.07100
C1763       C  0.61916208  0.17979202  0.97138493     0.13800
C1764       C  0.64727036  0.19573344  0.97080670    -0.20600
C1765       C  0.67321336  0.18411818  0.95511695    -0.07100
C1766       C  0.67099919  0.15427830  0.94177261     0.13800
C1767       C  0.69829713  0.13857257  0.92708125    -0.23900
H1768       H  0.64050806  0.11738286  0.92899692     0.15100
H1769       H  0.64915786  0.21698676  0.98385311     0.15100
C1770       C  0.59412838  0.19189674  0.99221018    -0.23900
H1771       H  0.69178477  0.11649813  0.91585951     0.05300
H1772       H  0.71587492  0.13318818  0.94495085     0.08500
H1773       H  0.70837648  0.15364825  0.90908033     0.08500
H1774       H  0.57382677  0.17648526  0.99275926     0.08500
H1775       H  0.58679137  0.21514236  0.98443894     0.08500
H1776       H  0.60306785  0.19357091  0.01625391     0.05300
C1777       C  0.50499464  0.16989525  0.86421083    -0.20500
C1778       C  0.52948356  0.17978565  0.88309454    -0.07100
C1779       C  0.54684434  0.20584360  0.87208244     0.13800
C1780       C  0.54073512  0.21852853  0.84267740    -0.20600
C1781       C  0.51817398  0.20655688  0.82319678    -0.07100
C1782       C  0.49960309  0.18208970  0.83454592     0.13800
C1783       C  0.47549573  0.16656752  0.81475232    -0.23900
H1784       H  0.49193785  0.14991989  0.87110576     0.15100
H1785       H  0.55396453  0.23802511  0.83460478     0.15100
C1786       C  0.57250459  0.22095200  0.89009061    -0.23900
H1787       H  0.46578994  0.14583951  0.82606889     0.05300
H1788       H  0.48603673  0.15896127  0.79268419     0.08500
H1789       H  0.45590290  0.18237388  0.81026019     0.08500
H1790       H  0.59157758  0.20460059  0.89436370     0.08500
H1791       H  0.56333697  0.23071882  0.91193491     0.08500
H1792       H  0.58284274  0.24056524  0.87741910     0.05300
C1793       C  0.31757483  0.14063827  0.03767656    -0.20500
C1794       C  0.34937479  0.13920250  0.03099886    -0.07100
C1795       C  0.36233938  0.16519533  0.01627910     0.13800
C1796       C  0.34649792  0.19346900  0.01728819    -0.20600
C1797       C  0.31669870  0.19618906  0.03009331    -0.07100
C1798       C  0.30131903  0.16869126  0.03821913     0.13800
C1799       C  0.26774935  0.16826441  0.04701844    -0.23900
H1800       H  0.30511643  0.11995918  0.04321410     0.15100
H1801       H  0.35767572  0.21358792  0.00780668     0.15100
C1802       C  0.39254247  0.16326737  0.99910503    -0.23900
H1803       H  0.25942561  0.14455414  0.05154121     0.05300
H1804       H  0.25359852  0.17791679  0.02790742     0.08500
H1805       H  0.26412942  0.18183073  0.06848268     0.08500
H1806       H  0.39078960  0.14550791  0.98070903     0.08500
H1807       H  0.41204554  0.15736906  0.01445407     0.08500
H1808       H  0.39825416  0.18544661  0.98779149     0.05300
C1809       C  0.44893277  0.80884004  0.16696380    -0.20500
C1810       C  0.47700505  0.81289982  0.18183515    -0.07100
C1811       C  0.50075435  0.82898572  0.16571400     0.13800
C1812       C  0.49441489  0.84317769  0.13697034    -0.20600
C1813       C  0.46504120  0.84214179  0.12362126    -0.07100
C1814       C  0.44228892  0.82299254  0.13855163     0.13800
C1815       C  0.40961158  0.81873400  0.12685931    -0.23900
H1816       H  0.43125506  0.79570291  0.17860364     0.15100
H1817       H  0.51193059  0.85713002  0.12618364     0.15100
C1818       C  0.53298259  0.83188633  0.17845545    -0.23900
H1819       H  0.39518570  0.80559124  0.14334980     0.05300
H1820       H  0.40933623  0.80515905  0.10518762     0.08500
H1821       H  0.39782923  0.84108578  0.12376435     0.08500
H1822       H  0.54255348  0.80874599  0.18347524     0.08500
H1823       H  0.53300685  0.84624201  0.19969660     0.08500
H1824       H  0.54871232  0.84310954  0.16173607     0.05300
C1825       C  0.64617245  0.92817650  0.85275834    -0.20500
C1826       C  0.63734884  0.94757020  0.87740336    -0.07100
C1827       C  0.64896556  0.97751087  0.87885697     0.13800
C1828       C  0.66965265  0.98724618  0.85616589    -0.20600
C1829       C  0.67822118  0.96835987  0.83067445    -0.07100
C1830       C  0.66577268  0.93837382  0.82896634     0.13800
C1831       C  0.67303450  0.91692510  0.80258726    -0.23900
H1832       H  0.63815253  0.90457839  0.85261212     0.15100
H1833       H  0.67854710  0.01041299  0.85828387     0.15100
C1834       C  0.64010662  0.99893642  0.90485663    -0.23900
H1835       H  0.66156206  0.89429139  0.80536211     0.05300
H1836       H  0.69823806  0.91280231  0.80147030     0.08500
H1837       H  0.66483083  0.92707693  0.78049741     0.08500
H1838       H  0.64728474  0.98894617  0.92738029     0.08500
H1839       H  0.61476197  0.00235970  0.90482302     0.08500
H1840       H  0.65110323  0.02185407  0.90250144     0.05300
C1841       C  0.35767257  0.99964009  0.84126911    -0.20500
C1842       C  0.37064812  0.97034835  0.83730444    -0.07100
C1843       C  0.35520934  0.94933902  0.81663620     0.13800
C1844       C  0.32675863  0.95745739  0.80346664    -0.20600
C1845       C  0.31264221  0.98564280  0.80963585    -0.07100
C1846       C  0.32911213  0.00763661  0.82792552     0.13800
C1847       C  0.31703480  0.03968683  0.83421726    -0.23900
H1848       H  0.36878888  0.01591621  0.85652028     0.15100
H1849       H  0.31498322  0.94112686  0.78864317     0.15100
C1850       C  0.36711029  0.91739653  0.80876554    -0.23900
H1851       H  0.33365797  0.05377332  0.84767429     0.05300
H1852       H  0.29557271  0.03854262  0.84802767     0.08500
H1853       H  0.31276327  0.05186859  0.81205552     0.08500
H1854       H  0.37257007  0.90390995  0.82976522     0.08500
H1855       H  0.38746194  0.91889997  0.79350075     0.08500
H1856       H  0.34990386  0.90370379  0.79564876     0.05300
C1857       C  0.16788580  0.70546551  0.05842507    -0.20500
C1858       C  0.18283635  0.70366553  0.03012139    -0.07100
C1859       C  0.17555369  0.67908478  0.00956989     0.13800
C1860       C  0.15197696  0.65833170  0.01712388    -0.20600
C1861       C  0.13590971  0.66058189  0.04512001    -0.07100
C1862       C  0.14501746  0.68433312  0.06664645     0.13800
C1863       C  0.13177051  0.68811955  0.09891574    -0.23900
H1864       H  0.17364344  0.72418599  0.07400842     0.15100
H1865       H  0.14714265  0.63948859  0.00150623     0.15100
C1866       C  0.19355347  0.67349044  0.98021493    -0.23900
H1867       H  0.10799119  0.69722989  0.09796949     0.05300
H1868       H  0.14499223  0.70507796  0.11283562     0.08500
H1869       H  0.13255059  0.66636840  0.11216099     0.08500
H1870       H  0.21857648  0.67273868  0.98552491     0.08500
H1871       H  0.18874514  0.69174743  0.96297826     0.08500
H1872       H  0.18733491  0.65123542  0.96920067     0.05300
C1873       C  0.36310640  0.86307966  0.07382061    -0.20500
C1874       C  0.38660006  0.86205478  0.05138306    -0.07100
C1875       C  0.38381977  0.84101566  0.02671888     0.13800
C1876       C  0.35816051  0.82159533  0.02528487    -0.20600
C1877       C  0.33469912  0.82232279  0.04784986    -0.07100
C1878       C  0.33693187  0.84408735  0.07203625     0.13800
C1879       C  0.31283041  0.84639568  0.09689004    -0.23900
H1880       H  0.36618501  0.87722716  0.09417650     0.15100
H1881       H  0.35679110  0.80532138  0.00634972     0.15100
C1882       C  0.40872455  0.83793465  0.00261530    -0.23900
H1883       H  0.31911722  0.86361991  0.11483465     0.05300
H1884       H  0.31012785  0.82375249  0.10841077     0.08500
H1885       H  0.29054211  0.85369912  0.08662056     0.08500
H1886       H  0.43047589  0.82984290  0.01339688     0.08500
H1887       H  0.41286048  0.86050870  0.99151751     0.08500
H1888       H  0.40234956  0.82122638  0.98421829     0.05300
C1889       C  0.16117956  0.84723970  0.89922226    -0.20500
C1890       C  0.16427102  0.83113092  0.92689272    -0.07100
C1891       C  0.14163695  0.83497588  0.95008223     0.13800
C1892       C  0.11778134  0.85662929  0.94600843    -0.20600
C1893       C  0.11456166  0.87302242  0.91830422    -0.07100
C1894       C  0.13566369  0.86643755  0.89378939     0.13800
C1895       C  0.13161428  0.87733875  0.86097942    -0.23900
H1896       H  0.17839700  0.84414307  0.88135554     0.15100
H1897       H  0.10056053  0.85953176  0.96389236     0.15100
C1898       C  0.14255150  0.81593290  0.97909538    -0.23900
H1899       H  0.15222126  0.89038936  0.85367893     0.05300
H1900       H  0.11127356  0.89199141  0.85752797     0.08500
H1901       H  0.12909322  0.85709678  0.84546532     0.08500
H1902       H  0.16466540  0.81952171  0.99127743     0.08500
H1903       H  0.14046503  0.79118841  0.97301360     0.08500
H1904       H  0.12345443  0.82194782  0.99504987     0.05300
C1905       C  0.35246626  0.87527340  0.96081105    -0.20500
C1906       C  0.34040612  0.85155561  0.94248471    -0.07100
C1907       C  0.34997585  0.84808953  0.91166506     0.13800
C1908       C  0.37067645  0.86938342  0.89947018    -0.20600
C1909       C  0.38252414  0.89363700  0.91752454    -0.07100
C1910       C  0.37344570  0.89641231  0.94872995     0.13800
C1911       C  0.38343340  0.92258412  0.96918149    -0.23900
H1912       H  0.34446588  0.87808617  0.98439558     0.15100
H1913       H  0.37597209  0.86838190  0.87503555     0.15100
C1914       C  0.33656237  0.82351796  0.89103297    -0.23900
H1915       H  0.39524265  0.91350013  0.99006977     0.05300
H1916       H  0.36298319  0.93611316  0.97652706     0.08500
H1917       H  0.39935529  0.93823929  0.95729253     0.08500
H1918       H  0.31113998  0.82605725  0.88994976     0.08500
H1919       H  0.34248019  0.80042555  0.90029186     0.08500
H1920       H  0.34552929  0.82505290  0.86706807     0.05300
C1921       C  0.16234451  0.92019572  0.05172572    -0.20500
C1922       C  0.13517595  0.90694933  0.06340751    -0.07100
C1923       C  0.13051089  0.87503650  0.05852128     0.13800
C1924       C  0.15478415  0.85698157  0.04718083    -0.20600
C1925       C  0.18309916  0.86981885  0.03870434    -0.07100
C1926       C  0.18641060  0.90218950  0.03970713     0.13800
C1927       C  0.21568120  0.91797950  0.03002637    -0.23900
H1928       H  0.16562824  0.94482610  0.05403805     0.15100
H1929       H  0.15165100  0.83231892  0.04528370     0.15100
C1930       C  0.10076425  0.85911169  0.06539239    -0.23900
H1931       H  0.21465982  0.94320196  0.03418879     0.05300
H1932       H  0.21959571  0.91447091  0.00491276     0.08500
H1933       H  0.23544861  0.90866363  0.04343772     0.08500
H1934       H  0.08186994  0.86972788  0.05183552     0.08500
H1935       H  0.09637093  0.86002592  0.09030141     0.08500
H1936       H  0.10141143  0.83435698  0.05892405     0.05300
C1937       C  0.16221466  0.98853593  0.14399533    -0.20500
C1938       C  0.13523710  0.97550918  0.15602004    -0.07100
C1939       C  0.13507938  0.96995478  0.18846400     0.13800
C1940       C  0.16318678  0.96772971  0.20481766    -0.20600
C1941       C  0.19148833  0.97426093  0.19057354    -0.07100
C1942       C  0.19043703  0.98690617  0.16003572     0.13800
C1943       C  0.21876234  0.99753059  0.14296389    -0.23900
H1944       H  0.16209169  0.99600128  0.12007838     0.15100
H1945       H  0.16277332  0.96177894  0.22915013     0.15100
C1946       C  0.10583552  0.96973361  0.20706284    -0.23900
H1947       H  0.21333162  0.00544250  0.11914254     0.05300
H1948       H  0.23549548  0.97826929  0.14083628     0.08500
H1949       H  0.22936019  0.01731932  0.15523461     0.08500
H1950       H  0.10310983  0.94722979  0.21886959     0.08500
H1951       H  0.08533231  0.97463155  0.19247938     0.08500
H1952       H  0.10695100  0.98804756  0.22498611     0.05300
C1953       C  0.32726296  0.09039747  0.16714526    -0.20500
C1954       C  0.33784712  0.06504304  0.18373553    -0.07100
C1955       C  0.36521515  0.05031291  0.17373907     0.13800
C1956       C  0.37657106  0.05573120  0.14388284    -0.20600
C1957       C  0.36363915  0.07864305  0.12524282    -0.07100
C1958       C  0.34176207  0.09912792  0.13947512     0.13800
C1959       C  0.33434023  0.13102408  0.12778506    -0.23900
H1960       H  0.30759311  0.10329479  0.17559802     0.15100
H1961       H  0.39530073  0.04168651  0.13517060     0.15100
C1962       C  0.38276751  0.02864878  0.19417758    -0.23900
H1963       H  0.33580963  0.14768708  0.14725390     0.05300
H1964       H  0.31060263  0.13172318  0.11822197     0.08500
H1965       H  0.35099793  0.13928671  0.11043199     0.08500
H1966       H  0.38459942  0.00624494  0.18243284     0.08500
H1967       H  0.37184919  0.02574831  0.21714359     0.08500
H1968       H  0.40635636  0.03768678  0.19796482     0.05300
C1969       C  0.31612781  0.95199212  0.35643619    -0.20500
C1970       C  0.32654614  0.93417895  0.33132459    -0.07100
C1971       C  0.35787522  0.92428188  0.33161023     0.13800
C1972       C  0.37639662  0.92983305  0.35786307    -0.20600
C1973       C  0.36478280  0.94448504  0.38423511    -0.07100
C1974       C  0.33503920  0.95802573  0.38222324     0.13800
C1975       C  0.32243506  0.97841297  0.40747119    -0.23900
H1976       H  0.29318400  0.96185618  0.35581815     0.15100
H1977       H  0.39982705  0.92151877  0.35818948     0.15100
C1978       C  0.37211058  0.90708534  0.30485403    -0.23900
H1979       H  0.31539560  0.00089437  0.39759275     0.05300
H1980       H  0.33973508  0.98300399  0.42583058     0.08500
H1981       H  0.30193235  0.96749372  0.41801666     0.08500
H1982       H  0.37358011  0.92229347  0.28432655     0.08500
H1983       H  0.35822699  0.88637757  0.29932930     0.08500
H1984       H  0.39590860  0.89925778  0.31017683     0.05300
C1985       C  0.41545479  0.94190988  0.15045049    -0.20500
C1986       C  0.40228849  0.93456548  0.12164111    -0.07100
C1987       C  0.37108662  0.94181466  0.11655248     0.13800
C1988       C  0.35253514  0.94856250  0.14226837    -0.20600
C1989       C  0.36489143  0.94932170  0.17248130    -0.07100
C1990       C  0.39720001  0.94689738  0.17641062     0.13800
C1991       C  0.41287850  0.94772651  0.20767685    -0.23900
H1992       H  0.44009319  0.93907252  0.15355512     0.15100
H1993       H  0.32829718  0.95337802  0.13868916     0.15100
C1994       C  0.35780110  0.94478424  0.08448012    -0.23900
H1995       H  0.43793675  0.94286084  0.20595891     0.05300
H1996       H  0.40278234  0.92996896  0.22300890     0.08500
H1997       H  0.41052156  0.97080444  0.21841579     0.08500
H1998       H  0.35946850  0.92313672  0.07131970     0.08500
H1999       H  0.37047869  0.96291656  0.07177209     0.08500
H2000       H  0.33313613  0.95155786  0.08509527     0.05300
C2001       C  0.39957748  0.03912924  0.37713751    -0.20500
C2002       C  0.38309489  0.06227845  0.39288070    -0.07100
C2003       C  0.35143863  0.06574446  0.38649702     0.13800
C2004       C  0.33811635  0.04904099  0.36237418    -0.20600
C2005       C  0.35574294  0.02978478  0.34322506    -0.07100
C2006       C  0.38674055  0.02368912  0.35152230     0.13800
C2007       C  0.40743164  0.00383093  0.33188761    -0.23900
H2008       H  0.42400321  0.03668057  0.38181381     0.15100
H2009       H  0.31390634  0.05256671  0.35731846     0.15100
C2010       C  0.33176591  0.08840730  0.40359314    -0.23900
H2011       H  0.43112918  0.00242693  0.34150410     0.05300
H2012       H  0.40894556  0.01358034  0.30822807     0.08500
H2013       H  0.39835059  0.98013645  0.33054004     0.08500
H2014       H  0.30798531  0.08959818  0.39415359     0.08500
H2015       H  0.34176096  0.11178997  0.40178382     0.08500
H2016       H  0.32991586  0.08061121  0.42787678     0.05300
C2017       C  0.56678565  0.82715037  0.68447416    -0.20500
C2018       C  0.53540835  0.82353280  0.69010803    -0.07100
C2019       C  0.51413012  0.83909285  0.67001507     0.13800
C2020       C  0.52503484  0.85800715  0.64604676    -0.20600
C2021       C  0.55647143  0.86228732  0.64074783    -0.07100
C2022       C  0.57777977  0.84589515  0.66040490     0.13800
C2023       C  0.61250422  0.84782491  0.65740632    -0.23900
H2024       H  0.58306005  0.81534114  0.69937420     0.15100
H2025       H  0.50848926  0.86942497  0.63134798     0.15100
C2026       C  0.47955877  0.83646865  0.67304903    -0.23900
H2027       H  0.62448244  0.83228878  0.67392216     0.05300
H2028       H  0.62045030  0.84077476  0.63419605     0.08500
H2029       H  0.62075200  0.87117906  0.66299509     0.08500
H2030       H  0.47204007  0.84544575  0.69588111     0.08500
H2031       H  0.47240829  0.81212871  0.67003835     0.08500
H2032       H  0.46706587  0.85004005  0.65521488     0.05300
C2033       C  0.45355810  0.86316231  0.80174015    -0.20500
C2034       C  0.43864690  0.83745846  0.81460706    -0.07100
C2035       C  0.43197022  0.83813659  0.84678834     0.13800
C2036       C  0.43764744  0.86515619  0.86394588    -0.20600
C2037       C  0.44807171  0.89218147  0.84980767    -0.07100
C2038       C  0.45910928  0.88996519  0.81908477     0.13800
C2039       C  0.47691495  0.91557871  0.80407535    -0.23900
H2040       H  0.46131374  0.86241545  0.77794478     0.15100
H2041       H  0.43190115  0.86563896  0.88821423     0.15100
C2042       C  0.41796109  0.81106600  0.86334687    -0.23900
H2043       H  0.49957629  0.90668384  0.79623924     0.05300
H2044       H  0.48135047  0.93488928  0.82031336     0.08500
H2045       H  0.46406633  0.92438857  0.78367742     0.08500
H2046       H  0.43421282  0.79132392  0.86341127     0.08500
H2047       H  0.39612974  0.80434745  0.85183964     0.08500
H2048       H  0.41269285  0.81647106  0.88788745     0.05300
C2049       C  0.53937491  0.86718341  0.83912477    -0.20500
C2050       C  0.52411011  0.84283467  0.85377584    -0.07100
C2051       C  0.51846678  0.84478665  0.88598215     0.13800
C2052       C  0.53174193  0.86891958  0.90285196    -0.20600
C2053       C  0.55178846  0.88995283  0.88878331    -0.07100
C2054       C  0.55320046  0.89083334  0.85613953     0.13800
C2055       C  0.57016505  0.91500800  0.83821643    -0.23900
H2056       H  0.54204010  0.86694745  0.81418909     0.15100
H2057       H  0.52991615  0.86893292  0.92786946     0.15100
C2058       C  0.50113481  0.82035550  0.90343819    -0.23900
H2059       H  0.55400990  0.92631000  0.82180742     0.05300
H2060       H  0.58902264  0.90412804  0.82476500     0.08500
H2061       H  0.57984054  0.93323420  0.85294204     0.08500
H2062       H  0.51266540  0.79769241  0.90050871     0.08500
H2063       H  0.47710305  0.81908293  0.89494339     0.08500
H2064       H  0.50014301  0.82537418  0.92861735     0.05300
C2065       C  0.43812156  0.35066685  0.58522243    -0.20500
C2066       C  0.43293750  0.38085144  0.59607987    -0.07100
C2067       C  0.44344398  0.38846841  0.62617292     0.13800
C2068       C  0.45099136  0.36444637  0.64651343    -0.20600
C2069       C  0.45019813  0.33354376  0.63691965    -0.07100
C2070       C  0.44555683  0.32670311  0.60534432     0.13800
C2071       C  0.44650606  0.29426556  0.59280163    -0.23900
H2072       H  0.43356701  0.34523060  0.56116189     0.15100
H2073       H  0.45765202  0.36981247  0.67009731     0.15100
C2074       C  0.44876143  0.42107066  0.63682775    -0.23900
H2075       H  0.44017146  0.29334299  0.56790634     0.05300
H2076       H  0.42997845  0.27960815  0.60558312     0.08500
H2077       H  0.47011509  0.28468323  0.59500652     0.08500
H2078       H  0.42717562  0.43441037  0.63792299     0.08500
H2079       H  0.46519682  0.43246136  0.62095859     0.08500
H2080       H  0.45909462  0.42183343  0.66034472     0.05300
C2081       C  0.42068775  0.67425576  0.32585019    -0.20500
C2082       C  0.45030891  0.67084422  0.31358494    -0.07100
C2083       C  0.46789288  0.64409930  0.32187051     0.13800
C2084       C  0.45650964  0.62379717  0.34416738    -0.20600
C2085       C  0.42712649  0.62741985  0.35635590    -0.07100
C2086       C  0.40830726  0.65215479  0.34589161     0.13800
C2087       C  0.37476306  0.65490717  0.35453655    -0.23900
H2088       H  0.40684671  0.69398295  0.31923856     0.15100
H2089       H  0.46984304  0.60364277  0.35065605     0.15100
C2090       C  0.49796554  0.63528405  0.30659740    -0.23900
H2091       H  0.36419243  0.67629846  0.34523991     0.05300
H2092       H  0.37200737  0.65535352  0.37981759     0.08500
H2093       H  0.36152191  0.63529788  0.34499952     0.08500
H2094       H  0.51647317  0.65145643  0.31319662     0.08500
H2095       H  0.49500680  0.63488559  0.28107564     0.08500
H2096       H  0.50596612  0.61201281  0.31366466     0.05300
C2097       C  0.48208591  0.66939361  0.63538806    -0.20500
C2098       C  0.45369127  0.67122244  0.62004728    -0.07100
C2099       C  0.43040053  0.69149570  0.63256118     0.13800
C2100       C  0.43594963  0.70716083  0.66022448    -0.20600
C2101       C  0.46306807  0.70297773  0.67672359    -0.07100
C2102       C  0.48699848  0.68467280  0.66370036     0.13800
C2103       C  0.51781701  0.68082856  0.67943143    -0.23900
H2104       H  0.49977105  0.65417695  0.62659339     0.15100
H2105       H  0.41816029  0.72178996  0.66997575     0.15100
C2106       C  0.39839380  0.69591786  0.61889039    -0.23900
H2107       H  0.53431353  0.66775474  0.66481460     0.05300
H2108       H  0.51517772  0.66783377  0.70132113     0.08500
H2109       H  0.52801298  0.70375348  0.68423471     0.08500
H2110       H  0.38294225  0.70887612  0.63471000     0.08500
H2111       H  0.38677235  0.67369656  0.61448303     0.08500
H2112       H  0.39937544  0.70989456  0.59754264     0.05300
C2113       C  0.58928249  0.37579469  0.65863161    -0.20500
C2114       C  0.56817969  0.38578708  0.63543519    -0.07100
C2115       C  0.54443753  0.36556329  0.62679459     0.13800
C2116       C  0.54008181  0.33836214  0.64387301    -0.20600
C2117       C  0.55816620  0.33105958  0.67015267    -0.07100
C2118       C  0.58413418  0.34915176  0.67648417     0.13800
C2119       C  0.60506274  0.34164223  0.70321655    -0.23900
H2120       H  0.60880916  0.39015268  0.66444100     0.15100
H2121       H  0.52050587  0.32395341  0.63835101     0.15100
C2122       C  0.52244969  0.37331810  0.60099735    -0.23900
H2123       H  0.62425915  0.35836160  0.70519541     0.05300
H2124       H  0.61508454  0.31832675  0.69990555     0.08500
H2125       H  0.59187589  0.34217618  0.72517057     0.08500
H2126       H  0.53493753  0.37389370  0.57871515     0.08500
H2127       H  0.51131749  0.39593255  0.60540763     0.08500
H2128       H  0.50415872  0.35574953  0.59863817     0.05300
C2129       C  0.66823405  0.51026032  0.66722157    -0.20500
C2130       C  0.67745497  0.49079463  0.69167203    -0.07100
C2131       C  0.65669006  0.46819878  0.70175489     0.13800
C2132       C  0.62956538  0.46320778  0.68477243    -0.20600
C2133       C  0.62190350  0.48008741  0.65758183    -0.07100
C2134       C  0.64139131  0.50509149  0.64988465     0.13800
C2135       C  0.63564370  0.52555508  0.62229640    -0.23900
H2136       H  0.68307177  0.52897395  0.66024634     0.15100
H2137       H  0.61641136  0.44350612  0.69169851     0.15100
C2138       C  0.66332943  0.44807730  0.72940389    -0.23900
H2139       H  0.65415710  0.54284287  0.61924091     0.05300
H2140       H  0.61397262  0.53866076  0.62563172     0.08500
H2141       H  0.63478064  0.51175521  0.60070066     0.08500
H2142       H  0.66681725  0.46265887  0.75024070     0.08500
H2143       H  0.68411379  0.43379967  0.72508186     0.08500
H2144       H  0.64407074  0.43211414  0.73442006     0.05300
C2145       C  0.60821761  0.64797308  0.36820640    -0.20500
C2146       C  0.58858217  0.63463096  0.39019281    -0.07100
C2147       C  0.55734816  0.64307576  0.39091157     0.13800
C2148       C  0.54671265  0.66576803  0.37041834    -0.20600
C2149       C  0.56659488  0.67975485  0.34899177    -0.07100
C2150       C  0.59751327  0.66998426  0.34716718     0.13800
C2151       C  0.61970390  0.68379610  0.32438714    -0.23900
H2152       H  0.63245412  0.64194421  0.36838268     0.15100
H2153       H  0.52280120  0.67293430  0.37136198     0.15100
C2154       C  0.53575903  0.62936296  0.41428072    -0.23900
H2155       H  0.64338961  0.67457953  0.32750364     0.05300
H2156       H  0.62059138  0.70914659  0.32753065     0.08500
H2157       H  0.61229503  0.67830651  0.30042442     0.08500
H2158       H  0.54407006  0.63447321  0.43805088     0.08500
H2159       H  0.53468084  0.60403937  0.41101355     0.08500
H2160       H  0.51206789  0.63877111  0.41186020     0.05300
C2161       C  0.17292668  0.49959177  0.81661541    -0.20500
C2162       C  0.19914252  0.48043948  0.81727354    -0.07100
C2163       C  0.20392819  0.46145090  0.84312765     0.13800
C2164       C  0.18168514  0.46080536  0.86643331    -0.20600
C2165       C  0.15452851  0.47929959  0.86596579    -0.07100
C2166       C  0.15062332  0.49919050  0.84020416     0.13800
C2167       C  0.12265514  0.51944317  0.83656934    -0.23900
H2168       H  0.16988749  0.51513348  0.79723554     0.15100
H2169       H  0.18523275  0.44350860  0.88396358     0.15100
C2170       C  0.23229999  0.44173681  0.84763214    -0.23900
H2171       H  0.10149166  0.50526109  0.83559574     0.05300
H2172       H  0.12149356  0.53603831  0.85605574     0.08500
H2173       H  0.12345533  0.53310102  0.81489962     0.08500
H2174       H  0.24367187  0.44808907  0.86977190     0.08500
H2175       H  0.24963900  0.44427116  0.82922002     0.08500
H2176       H  0.22554686  0.41712925  0.84869889     0.05300
C2177       C  0.36611752  0.42857152  0.64175617    -0.20500
C2178       C  0.36368553  0.45059026  0.61788248    -0.07100
C2179       C  0.34096408  0.47365508  0.62037140     0.13800
C2180       C  0.32019210  0.47289579  0.64500788    -0.20600
C2181       C  0.32220830  0.45089315  0.66889748    -0.07100
C2182       C  0.34648582  0.42915269  0.66778794     0.13800
C2183       C  0.35060774  0.40534158  0.69269952    -0.23900
H2184       H  0.38160417  0.40924673  0.63886797     0.15100
H2185       H  0.30149915  0.48936518  0.64486557     0.15100
C2186       C  0.33671864  0.49750210  0.59529851    -0.23900
H2187       H  0.36992638  0.38936569  0.68742741     0.05300
H2188       H  0.32927844  0.39154278  0.69498022     0.08500
H2189       H  0.35586972  0.41681354  0.71504869     0.08500
H2190       H  0.32888899  0.48650976  0.57349965     0.08500
H2191       H  0.35884595  0.50932575  0.59088759     0.08500
H2192       H  0.31937140  0.51518041  0.60183774     0.05300
C2193       C  0.35889257  0.59660439  0.62197976    -0.20500
C2194       C  0.38614676  0.58338277  0.61087985    -0.07100
C2195       C  0.39572237  0.55438555  0.62201661     0.13800
C2196       C  0.37825701  0.53980381  0.64499182    -0.20600
C2197       C  0.35105820  0.55329784  0.65614354    -0.07100
C2198       C  0.34084969  0.58170317  0.64393666     0.13800
C2199       C  0.31219708  0.59762591  0.65559701    -0.23900
H2200       H  0.35282157  0.61979277  0.61510882     0.15100
H2201       H  0.38585691  0.51791812  0.65435086     0.15100
C2202       C  0.42495814  0.53956226  0.61062735    -0.23900
H2203       H  0.30899670  0.62064658  0.64491805     0.05300
H2204       H  0.31372468  0.60088258  0.68103484     0.08500
H2205       H  0.29158233  0.58372824  0.64982245     0.08500
H2206       H  0.44493037  0.55458279  0.61588576     0.08500
H2207       H  0.42340090  0.53594513  0.58524557     0.08500
H2208       H  0.42903327  0.51684311  0.62168380     0.05300
C2209       C  0.37791549  0.36198947  0.02594049    -0.20500
C2210       C  0.34861140  0.37392414  0.01866476    -0.07100
C2211       C  0.34529558  0.40629504  0.01608590     0.13800
C2212       C  0.36885443  0.42514179  0.02750946    -0.20600
C2213       C  0.39412072  0.41222312  0.04322763    -0.07100
C2214       C  0.40149171  0.38126070  0.03671971     0.13800
C2215       C  0.43323314  0.36817010  0.04194434    -0.23900
H2216       H  0.38186414  0.33740315  0.02533059     0.15100
H2217       H  0.36492188  0.44975517  0.02912560     0.15100
C2218       C  0.31683100  0.42138681  0.00295799    -0.23900
H2219       H  0.43935677  0.36779745  0.06674790     0.05300
H2220       H  0.45031884  0.38211043  0.02911048     0.08500
H2221       H  0.43492648  0.34410720  0.03337945     0.08500
H2222       H  0.29696480  0.41800849  0.01861602     0.08500
H2223       H  0.31166866  0.41168135  0.97978677     0.08500
H2224       H  0.31991595  0.44660641  0.00022810     0.05300
C2225       C  0.56346214  0.65723749  0.87259845    -0.20500
C2226       C  0.55438139  0.62817925  0.86146681    -0.07100
C2227       C  0.53750298  0.62706068  0.83357037     0.13800
C2228       C  0.53642786  0.65310049  0.81443340    -0.20600
C2229       C  0.54995844  0.68140025  0.82310724    -0.07100
C2230       C  0.56133134  0.68393501  0.85385321     0.13800
C2231       C  0.57166902  0.71429253  0.86699031    -0.23900
H2232       H  0.57447629  0.65870673  0.89504461     0.15100
H2233       H  0.52473036  0.65106808  0.79237425     0.15100
C2234       C  0.51998093  0.59851408  0.82429803    -0.23900
H2235       H  0.57972449  0.71197772  0.89128446     0.05300
H2236       H  0.55215653  0.73087635  0.86681981     0.08500
H2237       H  0.59099799  0.72350873  0.85311672     0.08500
H2238       H  0.50353029  0.59248728  0.84293002     0.08500
H2239       H  0.53558587  0.57872460  0.82026323     0.08500
H2240       H  0.50652685  0.60218740  0.80272992     0.05300
C2241       C  0.63302378  0.55196981  0.81369374    -0.20500
C2242       C  0.63434967  0.54535134  0.84584119    -0.07100
C2243       C  0.66269599  0.53277373  0.85691699     0.13800
C2244       C  0.68918058  0.53360097  0.83815114    -0.20600
C2245       C  0.68860881  0.54542539  0.80788632    -0.07100
C2246       C  0.65968583  0.55290780  0.79500223     0.13800
C2247       C  0.65672951  0.56099655  0.76124868    -0.23900
H2248       H  0.61130277  0.55704469  0.80271454     0.15100
H2249       H  0.71075989  0.52499947  0.84746166     0.15100
C2250       C  0.66660984  0.51971648  0.88898850    -0.23900
H2251       H  0.63246318  0.56570071  0.75457790     0.05300
H2252       H  0.66527495  0.54160113  0.74682079     0.08500
H2253       H  0.67039880  0.58192112  0.75621504     0.08500
H2254       H  0.68377272  0.53351116  0.90204751     0.08500
H2255       H  0.64505926  0.51930254  0.90241237     0.08500
H2256       H  0.67506311  0.49562377  0.88727856     0.05300
C2257       C  0.40695878  0.64819881  0.87202069    -0.20500
C2258       C  0.42546997  0.63401479  0.89457413    -0.07100
C2259       C  0.45753885  0.63876398  0.89477410     0.13800
C2260       C  0.47019996  0.65889733  0.87294504    -0.20600
C2261       C  0.45136602  0.67337361  0.85092532    -0.07100
C2262       C  0.41959707  0.66764604  0.85001549     0.13800
C2263       C  0.39889852  0.68281153  0.82644919    -0.23900
H2264       H  0.38233552  0.64411584  0.87182781     0.15100
H2265       H  0.49456988  0.66402052  0.87353234     0.15100
C2266       C  0.47802115  0.62385463  0.91859195    -0.23900
H2267       H  0.37451466  0.67573781  0.82921236     0.05300
H2268       H  0.40637832  0.67627088  0.80279337     0.08500
H2269       H  0.40004871  0.70822159  0.82901142     0.08500
H2270       H  0.47711368  0.59847093  0.91602104     0.08500
H2271       H  0.47030803  0.63040462  0.94217191     0.08500
H2272       H  0.50239312  0.63102284  0.91593647     0.05300
C2273       C  0.34265041  0.54213613  0.87617294    -0.20500
C2274       C  0.37050611  0.55856959  0.87792152    -0.07100
C2275       C  0.38211289  0.57089310  0.84986277     0.13800
C2276       C  0.36229056  0.57392719  0.82429691    -0.20600
C2277       C  0.33199755  0.56281465  0.82487040    -0.07100
C2278       C  0.32291704  0.54466784  0.85050718     0.13800
C2279       C  0.29258168  0.52787709  0.85136736    -0.23900
H2280       H  0.33455579  0.53032567  0.89665940     0.15100
H2281       H  0.37092592  0.58457513  0.80339665     0.15100
C2282       C  0.41551358  0.57781160  0.84407963    -0.23900
H2283       H  0.29033663  0.51351077  0.87246329     0.05300
H2284       H  0.29051705  0.51237049  0.83106821     0.08500
H2285       H  0.27326810  0.54464890  0.85136176     0.08500
H2286       H  0.43054001  0.57375404  0.86405896     0.08500
H2287       H  0.41833700  0.60171198  0.83582848     0.08500
H2288       H  0.42396998  0.56237585  0.82541705     0.05300
C2289       C  0.31752319  0.64081496  0.92949671    -0.20500
C2290       C  0.33387945  0.62987337  0.95606610    -0.07100
C2291       C  0.32733563  0.64438128  0.98466439     0.13800
C2292       C  0.30677350  0.66965104  0.98532779    -0.20600
C2293       C  0.29302347  0.68165828  0.95824358    -0.07100
C2294       C  0.29744263  0.66613368  0.93025577     0.13800
C2295       C  0.28333321  0.67784057  0.90062308    -0.23900
H2296       H  0.32278376  0.63151331  0.90687158     0.15100
H2297       H  0.30306317  0.68166673  0.00701441     0.15100
C2298       C  0.34300489  0.63514163  0.01424387    -0.23900
H2299       H  0.28975440  0.66331144  0.88046435     0.05300
H2300       H  0.29130112  0.70165306  0.89603078     0.08500
H2301       H  0.25786281  0.67773948  0.90257415     0.08500
H2302       H  0.36820564  0.63860360  0.01221020     0.08500
H2303       H  0.33759150  0.61078150  0.01953846     0.08500
H2304       H  0.33502225  0.64921354  0.03416376     0.05300
C2305       C  0.35795946  0.32009930  0.94749537    -0.20500
C2306       C  0.32930702  0.33185992  0.93747025    -0.07100
C2307       C  0.32769876  0.36380127  0.93039106     0.13800
C2308       C  0.35477848  0.38205508  0.93169148    -0.20600
C2309       C  0.38361366  0.36932740  0.93952587    -0.07100
C2310       C  0.38435467  0.33838982  0.94981518     0.13800
C2311       C  0.41313096  0.32359714  0.96278715    -0.23900
H2312       H  0.35994251  0.29623709  0.95450939     0.15100
H2313       H  0.35360906  0.40604397  0.92513613     0.15100
C2314       C  0.29785868  0.37882003  0.92097915    -0.23900
H2315       H  0.42100566  0.30496346  0.94708340     0.05300
H2316       H  0.43206766  0.34034024  0.96620327     0.08500
H2317       H  0.40816953  0.31320931  0.98562143     0.08500
H2318       H  0.28092030  0.37704234  0.94006459     0.08500
H2319       H  0.28864439  0.36744730  0.89989996     0.08500
H2320       H  0.30093340  0.40363109  0.91569090     0.05300
C2321       C  0.37859627  0.48361427  0.84038386    -0.20500
C2322       C  0.35579800  0.46478271  0.82706401    -0.07100
C2323       C  0.34996425  0.43547318  0.84025941     0.13800
C2324       C  0.36799121  0.42546448  0.86506671    -0.20600
C2325       C  0.39162592  0.44361237  0.87731207    -0.07100
C2326       C  0.39647158  0.47334653  0.86550806     0.13800
C2327       C  0.42167334  0.49334155  0.87844070    -0.23900
H2328       H  0.38298991  0.50610121  0.83062521     0.15100
H2329       H  0.36585440  0.40186025  0.87273524     0.15100
C2330       C  0.32666393  0.41324934  0.82708449    -0.23900
H2331       H  0.42286849  0.51575756  0.86633881     0.05300
H2332       H  0.44431370  0.48171172  0.87583286     0.08500
H2333       H  0.41735132  0.49779625  0.90336038     0.08500
H2334       H  0.33145445  0.40903024  0.80221395     0.08500
H2335       H  0.30306751  0.42256939  0.83004367     0.08500
H2336       H  0.32729879  0.39062414  0.83901075     0.05300
C2337       C  0.46747451  0.31463607  0.84121614    -0.20500
C2338       C  0.46730057  0.32899390  0.81213549    -0.07100
C2339       C  0.47574858  0.36070151  0.81078202     0.13800
C2340       C  0.47963067  0.37740046  0.83834929    -0.20600
C2341       C  0.47245799  0.36443023  0.86713657    -0.07100
C2342       C  0.47171106  0.33178018  0.86853834     0.13800
C2343       C  0.47690890  0.31456108  0.89829828    -0.23900
H2344       H  0.46514147  0.28984127  0.84266900     0.15100
H2345       H  0.48407718  0.40191081  0.83716201     0.15100
C2346       C  0.47921630  0.37804093  0.78073527    -0.23900
H2347       H  0.49754512  0.29960139  0.89591324     0.05300
H2348       H  0.45681204  0.29973865  0.90340629     0.08500
H2349       H  0.48106849  0.33043250  0.91802091     0.08500
H2350       H  0.45793224  0.37579765  0.76664354     0.08500
H2351       H  0.49937480  0.36920067  0.76770722     0.08500
H2352       H  0.48319735  0.40300433  0.78458226     0.05300
C2353       C  0.53425882  0.72558587  0.14748827    -0.20500
C2354       C  0.52424226  0.71187848  0.17503071    -0.07100
C2355       C  0.50569052  0.68479274  0.17234440     0.13800
C2356       C  0.50469998  0.66879250  0.14407188    -0.20600
C2357       C  0.52302551  0.67818014  0.11923780    -0.07100
C2358       C  0.53182395  0.70966647  0.11917085     0.13800
C2359       C  0.53682192  0.72715650  0.08960634    -0.23900
H2360       H  0.54409054  0.74847482  0.14794778     0.15100
H2361       H  0.49419928  0.64619758  0.14321058     0.15100
C2362       C  0.48725501  0.67181665  0.19885822    -0.23900
H2363       H  0.51995539  0.74636767  0.08822244     0.05300
H2364       H  0.53333249  0.71222753  0.06901313     0.08500
H2365       H  0.56035342  0.73703902  0.08911494     0.08500
H2366       H  0.47253181  0.69011924  0.20908778     0.08500
H2367       H  0.50273718  0.66188198  0.21670521     0.08500
H2368       H  0.47179372  0.65297999  0.19111232     0.05300
C2369       C  0.68697724  0.34595237  0.02873632    -0.20500
C2370       C  0.68564501  0.31901365  0.04664988    -0.07100
C2371       C  0.65999208  0.31418969  0.06559049     0.13800
C2372       C  0.63650748  0.33631529  0.06631612    -0.20600
C2373       C  0.63672149  0.36338195  0.04774662    -0.07100
C2374       C  0.66343535  0.36837842  0.02947239     0.13800
C2375       C  0.66818120  0.39757880  0.01140677    -0.23900
H2376       H  0.70668169  0.34934006  0.01379920     0.15100
H2377       H  0.61882100  0.33270889  0.08335644     0.15100
C2378       C  0.65678727  0.28526398  0.08456086    -0.23900
H2379       H  0.65072795  0.39929885  0.99276130     0.05300
H2380       H  0.69112103  0.39808075  0.00014083     0.08500
H2381       H  0.66683087  0.41789117  0.02695396     0.08500
H2382       H  0.67603610  0.28356814  0.10141181     0.08500
H2383       H  0.65706937  0.26487457  0.06904779     0.08500
H2384       H  0.63488940  0.28483863  0.09774943     0.05300
C2385       C  0.05171150  0.69381260  0.35987379    -0.20500
C2386       C  0.03398625  0.66808965  0.36997334    -0.07100
C2387       C  0.00947091  0.65873549  0.35028646     0.13800
C2388       C  0.00422274  0.67426852  0.32221012    -0.20600
C2389       C  0.02240340  0.69927511  0.31252312    -0.07100
C2390       C  0.04584068  0.70969379  0.33223354     0.13800
C2391       C  0.06481135  0.73762335  0.32443410    -0.23900
H2392       H  0.07227642  0.70070158  0.37194525     0.15100
H2393       H  0.98564830  0.66650250  0.30735480     0.15100
C2394       C  0.98923643  0.63163572  0.35765959    -0.23900
H2395       H  0.08157603  0.74327729  0.34302198     0.05300
H2396       H  0.04949061  0.75791144  0.32131861     0.08500
H2397       H  0.07800046  0.73339870  0.30289030     0.08500
H2398       H  0.00326065  0.61039721  0.36016927     0.08500
H2399       H  0.97209776  0.62718565  0.33908499     0.08500
H2400       H  0.97605412  0.63641177  0.37906296     0.05300
C2401       C  0.84292972  0.43533731  0.65588681    -0.20500
C2402       C  0.83873645  0.46656200  0.65019359    -0.07100
C2403       C  0.85390853  0.48065696  0.62521950     0.13800
C2404       C  0.87698880  0.46439370  0.60946478    -0.20600
C2405       C  0.88379828  0.43398600  0.61762143    -0.07100
C2406       C  0.86452329  0.41846494  0.63909370     0.13800
C2407       C  0.86602460  0.38432447  0.64509707    -0.23900
H2408       H  0.83009330  0.42431091  0.67425723     0.15100
H2409       H  0.89066108  0.47583936  0.59202050     0.15100
C2410       C  0.84588775  0.51290712  0.61586964    -0.23900
H2411       H  0.84270827  0.37426350  0.64233785     0.05300
H2412       H  0.87426726  0.38000017  0.66903531     0.08500
H2413       H  0.88106440  0.37211622  0.62857657     0.08500
H2414       H  0.84884166  0.52818084  0.63606254     0.08500
H2415       H  0.82145346  0.51393353  0.60836595     0.08500
H2416       H  0.86049212  0.52115629  0.59656360     0.05300
C2417       C  0.94506637  0.34385206  0.65225786    -0.20500
C2418       C  0.96768958  0.36313671  0.63858336    -0.07100
C2419       C  0.99706828  0.36384725  0.65269726     0.13800
C2420       C  0.00232027  0.34618370  0.67950741    -0.20600
C2421       C  0.97913251  0.32808056  0.69355164    -0.07100
C2422       C  0.95009529  0.32684775  0.67927550     0.13800
C2423       C  0.92385816  0.30849168  0.69249721    -0.23900
H2424       H  0.92231005  0.34289963  0.64219864     0.15100
H2425       H  0.02503205  0.34704282  0.68985642     0.15100
C2426       C  0.02297210  0.38335957  0.64092059    -0.23900
H2427       H  0.90248093  0.31098186  0.67855382     0.05300
H2428       H  0.91866479  0.31661983  0.71628844     0.08500
H2429       H  0.92996864  0.28366749  0.69285226     0.08500
H2430       H  0.01627038  0.40800921  0.64186653     0.08500
H2431       H  0.02911152  0.37606693  0.61711431     0.08500
H2432       H  0.04409959  0.38087081  0.65523739     0.05300
C2433       C  0.82274840  0.60951884  0.60857977    -0.20500
C2434       C  0.85245400  0.59539950  0.60800940    -0.07100
C2435       C  0.86470838  0.58595379  0.63712148     0.13800
C2436       C  0.84604087  0.58767666  0.66384442    -0.20600
C2437       C  0.81529440  0.59780918  0.66265798    -0.07100
C2438       C  0.80409125  0.61005694  0.63494227     0.13800
C2439       C  0.77154423  0.62203232  0.63275787    -0.23900
H2440       H  0.81290034  0.61962512  0.58805260     0.15100
H2441       H  0.85438405  0.57768651  0.68527656     0.15100
C2442       C  0.89593422  0.57115114  0.64061875    -0.23900
H2443       H  0.76619831  0.63121279  0.60938165     0.05300
H2444       H  0.76821734  0.64088711  0.64980277     0.08500
H2445       H  0.75499201  0.60327827  0.63771777     0.08500
H2446       H  0.91408967  0.58869522  0.63878426     0.08500
H2447       H  0.89926865  0.55275084  0.62312815     0.08500
H2448       H  0.89889144  0.56034805  0.66370616     0.05300
C2449       C  0.14033494  0.53725841  0.66441372    -0.20500
C2450       C  0.13901273  0.56588901  0.64940573    -0.07100
C2451       C  0.16189140  0.58858274  0.65743227     0.13800
C2452       C  0.18463861  0.58170652  0.67920385    -0.20600
C2453       C  0.18639716  0.55305656  0.69300811    -0.07100
C2454       C  0.16396008  0.53050281  0.68586228     0.13800
C2455       C  0.16484780  0.49936275  0.70113243    -0.23900
H2456       H  0.12308899  0.52005172  0.65943042     0.15100
H2457       H  0.20238651  0.59854354  0.68425756     0.15100
C2458       C  0.16452991  0.62061991  0.64387051    -0.23900
H2459       H  0.14507367  0.48485911  0.69392105     0.05300
H2460       H  0.16393991  0.50222237  0.72664786     0.08500
H2461       H  0.18630452  0.48696856  0.69482198     0.08500
H2462       H  0.14674978  0.62724448  0.62703920     0.08500
H2463       H  0.16364080  0.63785814  0.66286182     0.08500
H2464       H  0.18705452  0.62282543  0.63199910     0.05300
C2465       C  0.95421838  0.72042225  0.84790715    -0.20500
C2466       C  0.96653164  0.70842195  0.82034459    -0.07100
C2467       C  0.98467263  0.68088712  0.82258906     0.13800
C2468       C  0.98512110  0.66420506  0.85042131    -0.20600
C2469       C  0.96618027  0.67265705  0.87523758    -0.07100
C2470       C  0.95569693  0.70367187  0.87576715     0.13800
C2471       C  0.94958982  0.72081151  0.90540228    -0.23900
H2472       H  0.94399265  0.74321307  0.84799291     0.15100
H2473       H  0.99593670  0.64167382  0.85087747     0.15100
C2474       C  0.00256636  0.66743770  0.79583136    -0.23900
H2475       H  0.96476260  0.74130541  0.90660916     0.05300
H2476       H  0.95490718  0.70650416  0.92599881     0.08500
H2477       H  0.92528605  0.72878885  0.90611544     0.08500
H2478       H  0.01970770  0.68435740  0.78745296     0.08500
H2479       H  0.98662951  0.66070182  0.77689573     0.08500
H2480       H  0.01553639  0.64638588  0.80252537     0.05300
C2481       C  0.01575630  0.84576351  0.86244370    -0.20500
C2482       C  0.01940950  0.87754698  0.85699431    -0.07100
C2483       C  0.01288656  0.88835596  0.82675330     0.13800
C2484       C  0.01251748  0.86736866  0.80209145    -0.20600
C2485       C  0.01571684  0.83564624  0.80729537    -0.07100
C2486       C  0.01500297  0.82466051  0.83791592     0.13800
C2487       C  0.01349757  0.79066054  0.84465356    -0.23900
H2488       H  0.01691653  0.83715832  0.88593191     0.15100
H2489       H  0.00807519  0.87565737  0.77883683     0.15100
C2490       C  0.00383610  0.92125981  0.82030613    -0.23900
H2491       H  0.01351814  0.78596015  0.86989597     0.05300
H2492       H  0.03370373  0.77886146  0.83428226     0.08500
H2493       H  0.99210075  0.78083823  0.83467366     0.08500
H2494       H  0.02025569  0.93182086  0.80383458     0.08500
H2495       H  0.00285595  0.93526409  0.84178628     0.08500
H2496       H  0.98051737  0.92178782  0.80973368     0.05300
C2497       C  0.08874858  0.66581558  0.64873125    -0.20500
C2498       C  0.06773346  0.64884486  0.63011618    -0.07100
C2499       C  0.03843623  0.66192814  0.62489534     0.13800
C2500       C  0.02968500  0.68816002  0.64202103    -0.20600
C2501       C  0.04881029  0.70085228  0.66519832    -0.07100
C2502       C  0.07944574  0.69091635  0.66702309     0.13800
C2503       C  0.10169427  0.70518239  0.68958979    -0.23900
H2504       H  0.11214855  0.65793451  0.65119800     0.15100
H2505       H  0.00676952  0.69761417  0.63884551     0.15100
C2506       C  0.01577643  0.64797537  0.60263942    -0.23900
H2507       H  0.12477259  0.69416610  0.68837984     0.05300
H2508       H  0.09295352  0.70255491  0.71354390     0.08500
H2509       H  0.10440611  0.73001803  0.68430162     0.08500
H2510       H  0.01129522  0.62360615  0.60880109     0.08500
H2511       H  0.02483618  0.64961721  0.57877161     0.08500
H2512       H  0.99352955  0.66056760  0.60281343     0.05300
C2513       C  0.93368835  0.64350727  0.62069800    -0.20500
C2514       C  0.90864672  0.65141510  0.60180664    -0.07100
C2515       C  0.88895767  0.67617511  0.61126868     0.13800
C2516       C  0.89909163  0.69601047  0.63441280    -0.20600
C2517       C  0.92499515  0.68882479  0.65187143    -0.07100
C2518       C  0.94054707  0.66072163  0.64717967     0.13800
C2519       C  0.96377989  0.64869547  0.67007940    -0.23900
H2520       H  0.94794945  0.62386261  0.61486140     0.15100
H2521       H  0.88615825  0.71681250  0.63956077     0.15100
C2522       C  0.85673482  0.68216523  0.59934818    -0.23900
H2523       H  0.97406031  0.62653735  0.66236544     0.05300
H2524       H  0.95230094  0.64480501  0.69263356     0.08500
H2525       H  0.98250130  0.66532624  0.67357984     0.08500
H2526       H  0.84715930  0.66311130  0.58556052     0.08500
H2527       H  0.85625324  0.70370040  0.58555969     0.08500
H2528       H  0.84080801  0.68489516  0.61923427     0.05300
C2529       C  0.63196853  0.18742327  0.52180837    -0.20500
C2530       C  0.64291956  0.15680891  0.52338893    -0.07100
C2531       C  0.67459810  0.15206420  0.51648477     0.13800
C2532       C  0.69493336  0.17720939  0.51668260    -0.20600
C2533       C  0.68420169  0.20740857  0.52081487    -0.07100
C2534       C  0.65215087  0.21261258  0.52152456     0.13800
C2535       C  0.63922037  0.24487713  0.52237470    -0.23900
H2536       H  0.60745936  0.19187160  0.52264633     0.15100
H2537       H  0.71920494  0.17327004  0.51255409     0.15100
C2538       C  0.68742193  0.12086291  0.50813804    -0.23900
H2539       H  0.61369288  0.24493910  0.52368603     0.05300
H2540       H  0.64594541  0.25754850  0.50118576     0.08500
H2541       H  0.64827233  0.25721535  0.54298366     0.08500
H2542       H  0.66924100  0.10302923  0.50701461     0.08500
H2543       H  0.70516849  0.11380906  0.52527050     0.08500
H2544       H  0.69829947  0.12202180  0.48495775     0.05300
C2545       C  0.65132970  0.32756196  0.44585719    -0.20500
C2546       C  0.67693748  0.33998171  0.43055362    -0.07100
C2547       C  0.67568373  0.37128195  0.42111103     0.13800
C2548       C  0.64834351  0.38821658  0.42525966    -0.20600
C2549       C  0.62169671  0.37441734  0.43682480    -0.07100
C2550       C  0.62405249  0.34449779  0.44954300     0.13800
C2551       C  0.59780506  0.32971389  0.46660940    -0.23900
H2552       H  0.65255898  0.30448268  0.45529682     0.15100
H2553       H  0.64717973  0.41172147  0.41728373     0.15100
C2554       C  0.70228411  0.38671257  0.40509788    -0.23900
H2555       H  0.60556933  0.32315305  0.49019856     0.05300
H2556       H  0.59024233  0.30870097  0.45409612     0.08500
H2557       H  0.57782891  0.34549421  0.46915634     0.08500
H2558       H  0.70934915  0.37293465  0.38463841     0.08500
H2559       H  0.72197763  0.38928727  0.42126145     0.08500
H2560       H  0.69608161  0.41014047  0.39685815     0.05300
C2561       C  0.86174706  0.37427315  0.56792972    -0.20500
C2562       C  0.89082502  0.36288795  0.55904658    -0.07100
C2563       C  0.89264338  0.33239259  0.54765072     0.13800
C2564       C  0.86671364  0.31335779  0.54883511    -0.20600
C2565       C  0.83766670  0.32451835  0.55808032    -0.07100
C2566       C  0.83531825  0.35547928  0.56779178     0.13800
C2567       C  0.80470261  0.36902761  0.57694942    -0.23900
H2568       H  0.85955260  0.39782624  0.57549071     0.15100
H2569       H  0.86845043  0.29032222  0.53921088     0.15100
C2570       C  0.92125702  0.31974274  0.53248184    -0.23900
H2571       H  0.80685239  0.39349887  0.58411392     0.05300
H2572       H  0.79516651  0.35589124  0.59670412     0.08500
H2573       H  0.78833164  0.36789527  0.55721844     0.08500
H2574       H  0.93974849  0.33715726  0.53048951     0.08500
H2575       H  0.91558720  0.31199404  0.50864064     0.08500
H2576       H  0.93009398  0.29979327  0.54588060     0.05300
C2577       C  0.65695651  0.38558063  0.52735289    -0.20500
C2578       C  0.67435677  0.36477210  0.54543742    -0.07100
C2579       C  0.66803396  0.36275726  0.57759841     0.13800
C2580       C  0.64630902  0.38274950  0.59076491    -0.20600
C2581       C  0.63045257  0.40458982  0.57298036    -0.07100
C2582       C  0.63503297  0.40544026  0.54076292     0.13800
C2583       C  0.61779326  0.42807486  0.52078346    -0.23900
H2584       H  0.66096824  0.38682819  0.50265544     0.15100
H2585       H  0.64234438  0.38208887  0.61549253     0.15100
C2586       C  0.68473354  0.34071597  0.59877670    -0.23900
H2587       H  0.62454902  0.42609393  0.49609160     0.05300
H2588       H  0.62264016  0.45192261  0.52864899     0.08500
H2589       H  0.59269295  0.42373009  0.52234732     0.08500
H2590       H  0.70988261  0.34508887  0.59797806     0.08500
H2591       H  0.67979802  0.31662756  0.59179456     0.08500
H2592       H  0.67731980  0.34330210  0.62322026     0.05300
C2593       C  0.86604525  0.35859134  0.45107597    -0.20500
C2594       C  0.83909164  0.37160451  0.46375409    -0.07100
C2595       C  0.84094822  0.40162522  0.47677313     0.13800
C2596       C  0.86706876  0.41941838  0.47075993    -0.20600
C2597       C  0.88974469  0.40863856  0.45040324    -0.07100
C2598       C  0.89215799  0.37670489  0.44592082     0.13800
C2599       C  0.92245254  0.36171425  0.43813194    -0.23900
H2600       H  0.86676644  0.33436709  0.44509629     0.15100
H2601       H  0.86691350  0.44364260  0.47687967     0.15100
C2602       C  0.81534514  0.41606766  0.49532426    -0.23900
H2603       H  0.92007903  0.33639746  0.43545845     0.05300
H2604       H  0.93904126  0.36616352  0.45718391     0.08500
H2605       H  0.93236020  0.37087694  0.41666608     0.08500
H2606       H  0.81045594  0.40173175  0.51591041     0.08500
H2607       H  0.79436308  0.41851720  0.48082408     0.08500
H2608       H  0.82155114  0.43939811  0.50380322     0.05300
C2609       C  0.17006977  0.94326637  0.61926799    -0.20500
C2610       C  0.13764136  0.94315343  0.62217957    -0.07100
C2611       C  0.12505798  0.95068028  0.65154699     0.13800
C2612       C  0.14502537  0.95381923  0.67724619    -0.20600
C2613       C  0.17717193  0.95191713  0.67409313    -0.07100
C2614       C  0.18970726  0.94676522  0.64462372     0.13800
C2615       C  0.22409704  0.94547149  0.63978509    -0.23900
H2616       H  0.18042875  0.94022927  0.59669715     0.15100
H2617       H  0.13568865  0.96080183  0.69942459     0.15100
C2618       C  0.09168426  0.95910268  0.65589908    -0.23900
H2619       H  0.23007722  0.94003594  0.61541221     0.05300
H2620       H  0.23422888  0.92728633  0.65471890     0.08500
H2621       H  0.23472850  0.96792689  0.64565896     0.08500
H2622       H  0.07631393  0.94011024  0.64954036     0.08500
H2623       H  0.08601350  0.97955587  0.64165332     0.08500
H2624       H  0.08655144  0.96519650  0.68030987     0.05300
C2625       C  0.06585356  0.88355852  0.63680409    -0.20500
C2626       C  0.05065496  0.89367568  0.61022293    -0.07100
C2627       C  0.02043340  0.88373898  0.60415531     0.13800
C2628       C  0.00684480  0.86208111  0.62390358    -0.20600
C2629       C  0.02306724  0.85007729  0.64945483    -0.07100
C2630       C  0.05241806  0.86263502  0.65699363     0.13800
C2631       C  0.07105981  0.85340063  0.68509072    -0.23900
H2632       H  0.08967962  0.89005048  0.64037203     0.15100
H2633       H  0.98401430  0.85358817  0.61854751     0.15100
C2634       C  0.00337529  0.89472241  0.57589890    -0.23900
H2635       H  0.09308782  0.86622637  0.68676936     0.05300
H2636       H  0.07701945  0.82855666  0.68394356     0.08500
H2637       H  0.05793494  0.85862775  0.70648150     0.08500
H2638       H  0.01609558  0.88805363  0.55467009     0.08500
H2639       H  0.00105416  0.92016347  0.57674534     0.08500
H2640       H  0.97999235  0.88463955  0.57452256     0.05300
C2641       C  0.14137324  0.11131458  0.67384668    -0.20500
C2642       C  0.14711541  0.07977374  0.67273126    -0.07100
C2643       C  0.13247504  0.06149742  0.65002140     0.13800
C2644       C  0.11100835  0.07499248  0.62978546    -0.20600
C2645       C  0.10413668  0.10642225  0.63165690    -0.07100
C2646       C  0.12082203  0.12516547  0.65306540     0.13800
C2647       C  0.11871556  0.15988629  0.65424158    -0.23900
H2648       H  0.15329540  0.12531357  0.69084961     0.15100
H2649       H  0.09887839  0.06081395  0.61310871     0.15100
C2650       C  0.13909946  0.02762130  0.64763059    -0.23900
H2651       H  0.14220815  0.16984073  0.65430469     0.05300
H2652       H  0.10686600  0.16715920  0.67578294     0.08500
H2653       H  0.10682454  0.17004005  0.63403457     0.08500
H2654       H  0.13239266  0.01629702  0.66954790     0.08500
H2655       H  0.16402991  0.02381658  0.64348442     0.08500
H2656       H  0.12617597  0.01679133  0.62830026     0.05300
C2657       C  0.00516574  0.17070234  0.64488160    -0.20500
C2658       C  0.02012400  0.18187054  0.61857118    -0.07100
C2659       C  0.02782658  0.21361728  0.61909642     0.13800
C2660       C  0.03318257  0.22823264  0.64773598    -0.20600
C2661       C  0.02728948  0.21286395  0.67568159    -0.07100
C2662       C  0.01014614  0.18471690  0.67385054     0.13800
C2663       C  0.99792133  0.16805568  0.70187198    -0.23900
H2664       H  0.99573389  0.14763859  0.64405471     0.15100
H2665       H  0.04167112  0.25165706  0.64809206     0.15100
C2666       C  0.02771709  0.23293183  0.59023704    -0.23900
H2667       H  0.98402676  0.14760412  0.69538892     0.05300
H2668       H  0.98273148  0.18359344  0.71543943     0.08500
H2669       H  0.01726296  0.15956379  0.71639307     0.08500
H2670       H  0.02170755  0.21902836  0.56950610     0.08500
H2671       H  0.05053774  0.24385656  0.58690228     0.08500
H2672       H  0.01016169  0.25143162  0.59252025     0.05300
C2673       C  0.15392287  0.02179833  0.35277073    -0.20500
C2674       C  0.15445866  0.05184977  0.36453987    -0.07100
C2675       C  0.17833554  0.07216490  0.35374821     0.13800
C2676       C  0.20049471  0.06134790  0.33278835    -0.20600
C2677       C  0.20007923  0.03133150  0.32139644    -0.07100
C2678       C  0.17593942  0.01134815  0.33122923     0.13800
C2679       C  0.17212337  0.97916355  0.31854004    -0.23900
H2680       H  0.13557770  0.00651533  0.35954187     0.15100
H2681       H  0.21874770  0.07659215  0.32542329     0.15100
C2682       C  0.18129959  0.10578243  0.36318332    -0.23900
H2683       H  0.15050770  0.96827320  0.32663368     0.05300
H2684       H  0.19134452  0.96420561  0.32640207     0.08500
H2685       H  0.17119832  0.97983194  0.29287288     0.08500
H2686       H  0.16002509  0.11899682  0.35848142     0.08500
H2687       H  0.19969979  0.11766024  0.35006618     0.08500
H2688       H  0.18794822  0.10809174  0.38775844     0.05300
C2689       C  0.94149028  0.89615478  0.66387575    -0.20500
C2690       C  0.91665067  0.90084225  0.64342465    -0.07100
C2691       C  0.88982479  0.88217282  0.64774183     0.13800
C2692       C  0.89063994  0.85734580  0.66846895    -0.20600
C2693       C  0.91533602  0.85283688  0.68857834    -0.07100
C2694       C  0.94053523  0.87338596  0.68720720     0.13800
C2695       C  0.96596419  0.87193388  0.71093176    -0.23900
H2696       H  0.96081105  0.91185071  0.66303220     0.15100
H2697       H  0.87130141  0.84168432  0.66974729     0.15100
C2698       C  0.85918015  0.88886906  0.63265126    -0.23900
H2699       H  0.98465407  0.88852455  0.70579980     0.05300
H2700       H  0.97602899  0.84854900  0.71191705     0.08500
H2701       H  0.95645152  0.87754085  0.73407993     0.08500
H2702       H  0.85066017  0.91194303  0.63946596     0.08500
H2703       H  0.86087728  0.88694118  0.60741901     0.08500
H2704       H  0.84117953  0.87227775  0.63983663     0.05300
C2705       C  0.80209335  0.99927691  0.65071948    -0.20500
C2706       C  0.80803802  0.99719627  0.68258900    -0.07100
C2707       C  0.83875016  0.99868742  0.69293047     0.13800
C2708       C  0.86267764  0.99830881  0.67121182    -0.20600
C2709       C  0.85675709  0.99402637  0.63932503    -0.07100
C2710       C  0.82612708  0.99912329  0.62908658     0.13800
C2711       C  0.81850603  0.00728360  0.59606836    -0.23900
H2712       H  0.77864766  0.00285637  0.64275853     0.15100
H2713       H  0.88625341  0.99833692  0.67946642     0.15100
C2714       C  0.84620953  0.00086832  0.72692013    -0.23900
H2715       H  0.80708234  0.03018160  0.59546826     0.05300
H2716       H  0.80249181  0.99004965  0.58603817     0.08500
H2717       H  0.83944321  0.00882619  0.58151208     0.08500
H2718       H  0.83657471  0.98065914  0.73918537     0.08500
H2719       H  0.83604401  0.02224670  0.73666502     0.08500
H2720       H  0.87142367  0.00140649  0.73118106     0.05300
C2721       C  0.81764333  0.14323536  0.46531512    -0.20500
C2722       C  0.84972402  0.14602248  0.47026145    -0.07100
C2723       C  0.86006298  0.17459448  0.48196501     0.13800
C2724       C  0.84146773  0.20068372  0.47815404    -0.20600
C2725       C  0.81162539  0.19898458  0.46503789    -0.07100
C2726       C  0.79882031  0.16936362  0.46082061     0.13800
C2727       C  0.76582426  0.16484591  0.45114350    -0.23900
H2728       H  0.80758673  0.12069829  0.46228950     0.15100
H2729       H  0.85106380  0.22267421  0.48497187     0.15100
C2730       C  0.89159556  0.17886313  0.49594736    -0.23900
H2731       H  0.75969757  0.14008416  0.44961724     0.05300
H2732       H  0.76193623  0.17518771  0.42800254     0.08500
H2733       H  0.75028167  0.17579586  0.46823510     0.08500
H2734       H  0.90522830  0.19502495  0.48163649     0.08500
H2735       H  0.90446427  0.15694222  0.49800185     0.08500
H2736       H  0.88924785  0.18866588  0.51956241     0.05300
C2737       C  0.99694971  0.86176105  0.35338827    -0.20500
C2738       C  0.98152799  0.85104695  0.37972457    -0.07100
C2739       C  0.97351620  0.81941221  0.37948513     0.13800
C2740       C  0.96875728  0.80436045  0.35097106    -0.20600
C2741       C  0.97586270  0.81889036  0.32283583    -0.07100
C2742       C  0.99305155  0.84696795  0.32458418     0.13800
C2743       C  0.00623554  0.86281653  0.29656269    -0.23900
H2744       H  0.00642370  0.88481361  0.35397129     0.15100
H2745       H  0.96012127  0.78098770  0.35088798     0.15100
C2746       C  0.97309887  0.80044040  0.40855596    -0.23900
H2747       H  0.01897815  0.88406816  0.30283562     0.05300
H2748       H  0.98743668  0.86974770  0.28056100     0.08500
H2749       H  0.02278896  0.84729883  0.28468442     0.08500
H2750       H  0.95009891  0.78985929  0.41178236     0.08500
H2751       H  0.97916840  0.81447103  0.42918367     0.08500
H2752       H  0.99043113  0.78168957  0.40664870     0.05300
C2753       C  0.69617716  0.63520548  0.45977104    -0.20500
C2754       C  0.66568583  0.63359341  0.47163909    -0.07100
C2755       C  0.65476114  0.66031976  0.48699416     0.13800
C2756       C  0.67013516  0.68848504  0.48296035    -0.20600
C2757       C  0.69754473  0.69107280  0.46551078    -0.07100
C2758       C  0.71183772  0.66341172  0.45597820     0.13800
C2759       C  0.74355799  0.66318274  0.44192545    -0.23900
H2760       H  0.70788434  0.61489832  0.45173055     0.15100
H2761       H  0.65988203  0.70888145  0.49310465     0.15100
C2762       C  0.62550575  0.65995539  0.50566993    -0.23900
H2763       H  0.75160049  0.63946477  0.43661382     0.05300
H2764       H  0.76029512  0.67356329  0.45834411     0.08500
H2765       H  0.74340989  0.67630490  0.41993091     0.08500
H2766       H  0.62768578  0.64279350  0.52453139     0.08500
H2767       H  0.60543048  0.65429009  0.49086479     0.08500
H2768       H  0.62077861  0.68264983  0.51656761     0.05300
C2769       C  0.84421750  0.69731950  0.49155264    -0.20500
C2770       C  0.81753348  0.70330483  0.50905573    -0.07100
C2771       C  0.80291952  0.67856891  0.52365689     0.13800
C2772       C  0.81691816  0.64946476  0.52313782    -0.20600
C2773       C  0.84678980  0.64445096  0.51067130    -0.07100
C2774       C  0.85883690  0.66831153  0.49187717     0.13800
C2775       C  0.88824933  0.66409710  0.47396435    -0.23900
H2776       H  0.85403881  0.71576008  0.47792514     0.15100
H2777       H  0.80474341  0.63153966  0.53498910     0.15100
C2778       C  0.77225015  0.68262944  0.53948290    -0.23900
H2779       H  0.90788835  0.65974229  0.48980675     0.05300
H2780       H  0.89388991  0.68485548  0.46016528     0.08500
H2781       H  0.88572649  0.64448268  0.45768375     0.08500
H2782       H  0.75482480  0.69101227  0.52261546     0.08500
H2783       H  0.77449073  0.69948463  0.55867766     0.08500
H2784       H  0.76370752  0.66072676  0.54945186     0.05300
C2785       C  0.65847985  0.88176827  0.55650310    -0.20500
C2786       C  0.62918342  0.86824958  0.55410194    -0.07100
C2787       C  0.62763721  0.83716910  0.54449916     0.13800
C2788       C  0.65434632  0.81907188  0.54428378    -0.20600
C2789       C  0.68370626  0.83142177  0.55055103    -0.07100
C2790       C  0.68578173  0.86382839  0.55476814     0.13800
C2791       C  0.71637612  0.87975919  0.55751361    -0.23900
H2792       H  0.66004980  0.90605479  0.56195315     0.15100
H2793       H  0.65194506  0.79491929  0.53846628     0.15100
C2794       C  0.59790838  0.82233110  0.53443684    -0.23900
H2795       H  0.71361877  0.90503089  0.56039321     0.05300
H2796       H  0.73003885  0.87576065  0.53620711     0.08500
H2797       H  0.72912354  0.87089147  0.57793464     0.08500
H2798       H  0.59211379  0.80315047  0.55030607     0.08500
H2799       H  0.57846453  0.83894676  0.53384048     0.08500
H2800       H  0.60058896  0.81294513  0.51069727     0.05300
C2801       C  0.82938280  0.87013922  0.42707861    -0.20500
C2802       C  0.82880557  0.83792985  0.43103655    -0.07100
C2803       C  0.85534968  0.82401017  0.44425046     0.13800
C2804       C  0.88213062  0.84159231  0.44893665    -0.20600
C2805       C  0.88460798  0.87248419  0.43910453    -0.07100
C2806       C  0.85640133  0.88772147  0.43187021     0.13800
C2807       C  0.85314034  0.92221628  0.43181089    -0.23900
H2808       H  0.80838231  0.88184715  0.42025922     0.15100
H2809       H  0.90211645  0.83037578  0.45891902     0.15100
C2810       C  0.85590897  0.79078750  0.45425133    -0.23900
H2811       H  0.82863532  0.92945727  0.43045960     0.05300
H2812       H  0.86444934  0.93251517  0.41167034     0.08500
H2813       H  0.86263116  0.93180201  0.45365493     0.08500
H2814       H  0.85246109  0.77546792  0.43397866     0.08500
H2815       H  0.83768114  0.78688757  0.47170479     0.08500
H2816       H  0.87822209  0.78424297  0.46503087     0.05300
C2817       C  0.85906503  0.86441370  0.53511335    -0.20500
C2818       C  0.83162992  0.87593369  0.52214521    -0.07100
C2819       C  0.82755223  0.90832123  0.52056148     0.13800
C2820       C  0.84858271  0.92748185  0.53579164    -0.20600
C2821       C  0.87306577  0.91553032  0.55343401    -0.07100
C2822       C  0.88024236  0.88380320  0.55018577     0.13800
C2823       C  0.90930273  0.86967713  0.56286224    -0.23900
H2824       H  0.86352095  0.83986067  0.53440410     0.15100
H2825       H  0.84431083  0.95208791  0.53618872     0.15100
C2826       C  0.80035969  0.92328398  0.50473411    -0.23900
H2827       H  0.92938613  0.87983453  0.55094450     0.05300
H2828       H  0.91021670  0.84443954  0.55878477     0.08500
H2829       H  0.91114739  0.87332162  0.58803503     0.08500
H2830       H  0.77865597  0.91632135  0.51622126     0.08500
H2831       H  0.79984462  0.91663502  0.47994481     0.08500
H2832       H  0.80150323  0.94880627  0.50573606     0.05300
C2833       C  0.65984311  0.89655893  0.47754110    -0.20500
C2834       C  0.65733164  0.86636936  0.46624075    -0.07100
C2835       C  0.63181421  0.85821284  0.44765036     0.13800
C2836       C  0.61235782  0.88164160  0.43687011    -0.20600
C2837       C  0.61893986  0.91256679  0.44333942    -0.07100
C2838       C  0.64053187  0.91983550  0.46653314     0.13800
C2839       C  0.64345721  0.95203215  0.47925312    -0.23900
H2840       H  0.67826530  0.90233708  0.49347118     0.15100
H2841       H  0.59444429  0.87606178  0.42034611     0.15100
C2842       C  0.62669080  0.82569838  0.43659813    -0.23900
H2843       H  0.66054208  0.95309428  0.49838843     0.05300
H2844       H  0.62086461  0.95965318  0.48852574     0.08500
H2845       H  0.65091986  0.96833132  0.46112614     0.08500
H2846       H  0.62309056  0.81031095  0.45670404     0.08500
H2847       H  0.64692144  0.81764280  0.42315670     0.08500
H2848       H  0.60609813  0.82394038  0.42140776     0.05300
C2849       C  0.69442618  0.98576502  0.34757705    -0.20500
C2850       C  0.68913627  0.97862259  0.31607979    -0.07100
C2851       C  0.65898481  0.98298817  0.30438988     0.13800
C2852       C  0.63493628  0.99010278  0.32510783    -0.20600
C2853       C  0.63958251  0.98932583  0.35753787    -0.07100
C2854       C  0.67022610  0.99265968  0.36782924     0.13800
C2855       C  0.67784786  0.00469114  0.39963139    -0.23900
H2856       H  0.71769795  0.98641960  0.35665703     0.15100
H2857       H  0.61160752  0.99156821  0.31625901     0.15100
C2858       C  0.65182252  0.98009860  0.27040328    -0.23900
H2859       H  0.69132626  0.02624258  0.39745003     0.05300
H2860       H  0.69197252  0.98765136  0.41254552     0.08500
H2861       H  0.65674372  0.01013597  0.41303036     0.08500
H2862       H  0.65691007  0.95633361  0.26239740     0.08500
H2863       H  0.66580840  0.99679907  0.25710885     0.08500
H2864       H  0.62718237  0.98488812  0.26538879     0.05300
C2865       C  0.67880619  0.06489822  0.18291815    -0.20500
C2866       C  0.68505495  0.03376495  0.18732218    -0.07100
C2867       C  0.66537622  0.01164791  0.17265708     0.13800
C2868       C  0.64121947  0.02160801  0.15333152    -0.20600
C2869       C  0.63584539  0.05282174  0.14776486    -0.07100
C2870       C  0.65495103  0.07500722  0.16356670     0.13800
C2871       C  0.65179351  0.10977752  0.16029663    -0.23900
H2872       H  0.69336818  0.08173136  0.19423293     0.15100
H2873       H  0.62685658  0.00466975  0.14209213     0.15100
C2874       C  0.66923420  0.97728424  0.17657979    -0.23900
H2875       H  0.66897073  0.12227680  0.17460893     0.05300
H2876       H  0.62918765  0.11829008  0.16828274     0.08500
H2877       H  0.65606548  0.11734452  0.13635827     0.08500
H2878       H  0.66774134  0.97110434  0.20142071     0.08500
H2879       H  0.69159911  0.96966851  0.16679387     0.08500
H2880       H  0.65103905  0.96410371  0.16430205     0.05300
C2881       C  0.84655029  0.07897597  0.32424675    -0.20500
C2882       C  0.81731788  0.06690751  0.33011912    -0.07100
C2883       C  0.80969075  0.05891682  0.36079363     0.13800
C2884       C  0.83171384  0.06172869  0.38422935    -0.20600
C2885       C  0.86056901  0.07559264  0.37928684    -0.07100
C2886       C  0.86844298  0.08319636  0.34810845     0.13800
C2887       C  0.89958674  0.09383988  0.33763613    -0.23900
H2888       H  0.85321865  0.08300477  0.30043520     0.15100
H2889       H  0.82541895  0.05493862  0.40749180     0.15100
C2890       C  0.77791848  0.04750255  0.36904897    -0.23900
H2891       H  0.90845709  0.07770363  0.31977243     0.05300
H2892       H  0.91695944  0.09436845  0.35586730     0.08500
H2893       H  0.89765855  0.11702934  0.32710571     0.08500
H2894       H  0.77312790  0.02495404  0.35805125     0.08500
H2895       H  0.76041505  0.06451860  0.36129617     0.08500
H2896       H  0.77523877  0.04444954  0.39440034     0.05300
C2897       C  0.79863733  0.95297289  0.13774653    -0.20500
C2898       C  0.81116010  0.93602164  0.16256310    -0.07100
C2899       C  0.84117506  0.92363255  0.15926918     0.13800
C2900       C  0.85792262  0.92954121  0.13232780    -0.20600
C2901       C  0.84509206  0.94468724  0.10674737    -0.07100
C2902       C  0.81521831  0.95769345  0.11008149     0.13800
C2903       C  0.80213219  0.97935325  0.08610837    -0.23900
H2904       H  0.77647042  0.96411359  0.14063478     0.15100
H2905       H  0.88149009  0.92241877  0.13175237     0.15100
C2906       C  0.85592330  0.90357540  0.18372318    -0.23900
H2907       H  0.78019697  0.98994016  0.09397888     0.05300
H2908       H  0.79721256  0.96743632  0.06402812     0.08500
H2909       H  0.81874043  0.99824165  0.08186923     0.08500
H2910       H  0.83995317  0.88477689  0.19021061     0.08500
H2911       H  0.86216975  0.91731883  0.20441060     0.08500
H2912       H  0.87750188  0.89268440  0.17528073     0.05300
C2913       C  0.85938059  0.91958926  0.32875534    -0.20500
C2914       C  0.86055140  0.95052353  0.32048321    -0.07100
C2915       C  0.88124075  0.97066480  0.33560378     0.13800
C2916       C  0.90093337  0.95891458  0.35843439    -0.20600
C2917       C  0.90056826  0.92762537  0.36580651    -0.07100
C2918       C  0.87930325  0.90763302  0.35091448     0.13800
C2919       C  0.87685944  0.87352760  0.35703192    -0.23900
H2920       H  0.84314519  0.90440436  0.31729212     0.15100
H2921       H  0.91736848  0.97390683  0.36980994     0.15100
C2922       C  0.88210463  0.00451489  0.32835616    -0.23900
H2923       H  0.85295967  0.86789440  0.36398273     0.05300
H2924       H  0.89224437  0.86517365  0.37545632     0.08500
H2925       H  0.88240807  0.86058333  0.33557710     0.08500
H2926       H  0.85899000  0.01459157  0.33226185     0.08500
H2927       H  0.88903252  0.00813493  0.30396161     0.08500
H2928       H  0.89875498  0.01696742  0.34333723     0.05300
C2929       C  0.84777463  0.08668347  0.16965193    -0.20500
C2930       C  0.84939564  0.05449763  0.17090694    -0.07100
C2931       C  0.86982384  0.03878654  0.15058798     0.13800
C2932       C  0.88845150  0.05572888  0.13038579    -0.20600
C2933       C  0.88832417  0.08784546  0.13104142    -0.07100
C2934       C  0.86721324  0.10360054  0.15050656     0.13800
C2935       C  0.86502920  0.13823749  0.15273624    -0.23900
H2936       H  0.83223493  0.09902352  0.18489704     0.15100
H2937       H  0.90487000  0.04389987  0.11566774     0.15100
C2938       C  0.87273101  0.00431430  0.15026993    -0.23900
H2939       H  0.84099535  0.14565307  0.14808853     0.05300
H2940       H  0.87994448  0.15040297  0.13614327     0.08500
H2941       H  0.87149041  0.14571753  0.17644518     0.08500
H2942       H  0.84956980  0.99423970  0.14756258     0.08500
H2943       H  0.88333117  0.99613610  0.17214914     0.08500
H2944       H  0.88735667  0.99598110  0.13092418     0.05300
C2945       C  0.02261811  0.35557085  0.18365438    -0.20500
C2946       C  0.03454096  0.32515791  0.18315700    -0.07100
C2947       C  0.03960446  0.31146471  0.15388604     0.13800
C2948       C  0.03606451  0.32949921  0.12699440    -0.20600
C2949       C  0.03126525  0.36176551  0.12851316    -0.07100
C2950       C  0.01994540  0.37344774  0.15677704     0.13800
C2951       C  0.00462903  0.40454805  0.15918359    -0.23900
H2952       H  0.01537161  0.36595487  0.20525770     0.15100
H2953       H  0.04024727  0.31882367  0.10473953     0.15100
C2954       C  0.04974577  0.27841383  0.15051676    -0.23900
H2955       H  0.98092736  0.40167939  0.16824267     0.05300
H2956       H  0.00274405  0.41611648  0.13640590     0.08500
H2957       H  0.01766960  0.41954272  0.17535529     0.08500
H2958       H  0.03269820  0.26278284  0.16113944     0.08500
H2959       H  0.07245140  0.27513675  0.16189446     0.08500
H2960       H  0.05224282  0.27163109  0.12586709     0.05300
C2961       C  0.98564176  0.17195908  0.19144267    -0.20500
C2962       C  0.97635345  0.20295040  0.18995238    -0.07100
C2963       C  0.96907324  0.21566833  0.16095481     0.13800
C2964       C  0.96927140  0.19655811  0.13471249    -0.20600
C2965       C  0.97230075  0.16416924  0.13723498    -0.07100
C2966       C  0.98425593  0.15256022  0.16552764     0.13800
C2967       C  0.99474055  0.11969571  0.16969094    -0.23900
H2968       H  0.99403767  0.16271104  0.21319748     0.15100
H2969       H  0.96545697  0.20716106  0.11245116     0.15100
C2970       C  0.96094788  0.24926644  0.15760348    -0.23900
H2971       H  0.01904498  0.11943910  0.17770788     0.05300
H2972       H  0.99364895  0.10605886  0.14811737     0.08500
H2973       H  0.98028540  0.10824238  0.18737556     0.08500
H2974       H  0.97986388  0.26389378  0.16648261     0.08500
H2975       H  0.93976319  0.25435126  0.17099319     0.08500
H2976       H  0.95655638  0.25560010  0.13310344     0.05300
C2977       C  0.07440053  0.13190890  0.33091304    -0.20500
C2978       C  0.07779746  0.13377471  0.36342134    -0.07100
C2979       C  0.07601540  0.16331976  0.37709984     0.13800
C2980       C  0.07693232  0.18955811  0.35806592    -0.20600
C2981       C  0.07488612  0.18774866  0.32544771    -0.07100
C2982       C  0.07281408  0.15810220  0.31189123     0.13800
C2983       C  0.06827960  0.15341055  0.27760418    -0.23900
H2984       H  0.07325435  0.10941944  0.32009826     0.15100
H2985       H  0.07650713  0.21191615  0.36918869     0.15100
C2986       C  0.06867242  0.16799860  0.41082277    -0.23900
H2987       H  0.06805676  0.12863213  0.27121894     0.05300
H2988       H  0.08735666  0.16440135  0.26470932     0.08500
H2989       H  0.04584453  0.16332361  0.27024530     0.08500
H2990       H  0.08680261  0.15896393  0.42591150     0.08500
H2991       H  0.04658595  0.15649256  0.41628802     0.08500
H2992       H  0.06585947  0.19273596  0.41674168     0.05300
C2993       C  0.95416177  0.38273718  0.30768676    -0.20500
C2994       C  0.94030372  0.35372649  0.31193982    -0.07100
C2995       C  0.92047698  0.34964969  0.33736748     0.13800
C2996       C  0.91617766  0.37416424  0.35830327    -0.20600
C2997       C  0.93331954  0.40156666  0.35609769    -0.07100
C2998       C  0.95189470  0.40608697  0.32984981     0.13800
C2999       C  0.96988062  0.43525283  0.32463989    -0.23900
H3000       H  0.96927897  0.38633226  0.28809564     0.15100
H3001       H  0.89897721  0.37208801  0.37624768     0.15100
C3002       C  0.90462942  0.31945142  0.34305648    -0.23900
H3003       H  0.99470233  0.42953369  0.32228369     0.05300
H3004       H  0.96763094  0.45195020  0.34394077     0.08500
H3005       H  0.96180817  0.44652740  0.30305321     0.08500
H3006       H  0.92201388  0.30098342  0.34657019     0.08500
H3007       H  0.88983967  0.31359043  0.32292463     0.08500
H3008       H  0.88987483  0.32040543  0.36398436     0.05300
C3009       C  0.91945376  0.18935956  0.34936917    -0.20500
C3010       C  0.95141993  0.19117134  0.34703017    -0.07100
C3011       C  0.96980236  0.16821717  0.36133631     0.13800
C3012       C  0.95615342  0.14646210  0.38084952    -0.20600
C3013       C  0.92449458  0.14677821  0.38578495    -0.07100
C3014       C  0.90564245  0.16712742  0.36805380     0.13800
C3015       C  0.87092407  0.16623978  0.36810257    -0.23900
H3016       H  0.90512849  0.20591191  0.33722707     0.15100
H3017       H  0.97039072  0.13029331  0.39358760     0.15100
C3018       C  0.00378756  0.16642879  0.35607594    -0.23900
H3019       H  0.86236883  0.16419431  0.34395789     0.05300
H3020       H  0.86169701  0.18780410  0.37839075     0.08500
H3021       H  0.86157062  0.14639823  0.38084168     0.08500
H3022       H  0.01500129  0.18670890  0.36670850     0.08500
H3023       H  0.00855671  0.16565597  0.33087560     0.08500
H3024       H  0.01380717  0.14541263  0.36668060     0.05300
C3025       C  0.08967257  0.34493071  0.35883968    -0.20500
C3026       C  0.05766045  0.34353106  0.35899785    -0.07100
C3027       C  0.04048605  0.36332764  0.37840057     0.13800
C3028       C  0.05616556  0.38364094  0.39815864    -0.20600
C3029       C  0.08838912  0.38405217  0.39892576    -0.07100
C3030       C  0.10535476  0.36502074  0.37827457     0.13800
C3031       C  0.13993837  0.36541533  0.37538708    -0.23900
H3032       H  0.10263741  0.33007971  0.34337567     0.15100
H3033       H  0.04333603  0.39844561  0.41373078     0.15100
C3034       C  0.00585293  0.36347128  0.37777122    -0.23900
H3035       H  0.14644363  0.36830441  0.35075412     0.05300
H3036       H  0.14968106  0.34334513  0.38392632     0.08500
H3037       H  0.15059070  0.38462988  0.38805929     0.08500
H3038       H  0.99692141  0.34087553  0.38550352     0.08500
H3039       H  0.99786903  0.36794856  0.35385308     0.08500
H3040       H  0.99609037  0.38156740  0.39310262     0.05300
C3041       C  0.81673749  0.53659278  0.16019492    -0.20500
C3042       C  0.81868152  0.54732121  0.19102532    -0.07100
C3043       C  0.84838150  0.54878739  0.20457389     0.13800
C3044       C  0.87459598  0.54439984  0.18582318    -0.20600
C3045       C  0.87222586  0.54096786  0.15335179    -0.07100
C3046       C  0.84299036  0.53203439  0.14183919     0.13800
C3047       C  0.83847436  0.51945611  0.10963047    -0.23900
H3048       H  0.79447578  0.53196903  0.14984846     0.15100
H3049       H  0.89707569  0.54559187  0.19654278     0.15100
C3050       C  0.85290832  0.55468953  0.23860814    -0.23900
H3051       H  0.82732001  0.49654687  0.11101012     0.05300
H3052       H  0.86047972  0.51644396  0.09713335     0.08500
H3053       H  0.82337713  0.53510884  0.09605983     0.08500
H3054       H  0.84080484  0.53672046  0.25204891     0.08500
H3055       H  0.84387030  0.57780911  0.24480074     0.08500
H3056       H  0.87760062  0.55399419  0.24530923     0.05300
C3057       C  0.83473559  0.50781078  0.32118490    -0.20500
C3058       C  0.81008866  0.48704577  0.31748555    -0.07100
C3059       C  0.80850918  0.46152045  0.33718126     0.13800
C3060       C  0.83124692  0.45759234  0.35996857    -0.20600
C3061       C  0.85587536  0.47877124  0.36473241    -0.07100
C3062       C  0.85781705  0.50377441  0.34376579     0.13800
C3063       C  0.88431763  0.52602426  0.34400798    -0.23900
H3064       H  0.83591776  0.52768406  0.30616530     0.15100
H3065       H  0.83042233  0.43636211  0.37290282     0.15100
C3066       C  0.78274216  0.43847565  0.33463726    -0.23900
H3067       H  0.88280450  0.54271557  0.32462644     0.05300
H3068       H  0.90645074  0.51345669  0.34144907     0.08500
H3069       H  0.88400711  0.53964766  0.36569362     0.08500
H3070       H  0.78326855  0.42729112  0.31153851     0.08500
H3071       H  0.76024806  0.45022938  0.33793515     0.08500
H3072       H  0.78469431  0.42009625  0.35236261     0.05300
C3073       C  0.66148356  0.43642381  0.17406460    -0.20500
C3074       C  0.67717156  0.46397654  0.16838891    -0.07100
C3075       C  0.67011786  0.48049534  0.14048824     0.13800
C3076       C  0.64686879  0.46985301  0.12068714    -0.20600
C3077       C  0.63180830  0.44222375  0.12616707    -0.07100
C3078       C  0.63975557  0.42483735  0.15287976     0.13800
C3079       C  0.62653001  0.39343740  0.15927492    -0.23900
H3080       H  0.66643619  0.42354679  0.19495278     0.15100
H3081       H  0.64197057  0.48204083  0.09934028     0.15100
C3082       C  0.68770321  0.50856516  0.12983157    -0.23900
H3083       H  0.64543227  0.37620069  0.16027364     0.05300
H3084       H  0.61442730  0.39375768  0.18186169     0.08500
H3085       H  0.60991946  0.38581443  0.14138437     0.08500
H3086       H  0.71278183  0.50354982  0.12982340     0.08500
H3087       H  0.68263720  0.52869538  0.14475188     0.08500
H3088       H  0.68130820  0.51548248  0.10592903     0.05300
C3089       C  0.63439887  0.57747755  0.35852185    -0.20500
C3090       C  0.64815418  0.56394953  0.38453830    -0.07100
C3091       C  0.67796023  0.55106520  0.38098971     0.13800
C3092       C  0.69554400  0.55847685  0.35481871    -0.20600
C3093       C  0.68332642  0.57657454  0.33076900    -0.07100
C3094       C  0.65148612  0.58428315  0.33185252     0.13800
C3095       C  0.63526183  0.60061161  0.30565337    -0.23900
H3096       H  0.61059267  0.58457611  0.35957563     0.15100
H3097       H  0.71881698  0.54957762  0.35306459     0.15100
C3098       C  0.69156287  0.52931345  0.40444640    -0.23900
H3099       H  0.61113209  0.60668269  0.31159595     0.05300
H3100       H  0.63431151  0.58546701  0.28497763     0.08500
H3101       H  0.64747303  0.62227142  0.30002123     0.08500
H3102       H  0.67519936  0.52424658  0.42342250     0.08500
H3103       H  0.71289174  0.53929055  0.41443670     0.08500
H3104       H  0.69734832  0.50715242  0.39295986     0.05300
C3105       C  0.61532803  0.61676922  0.15157729    -0.20500
C3106       C  0.59696692  0.59517277  0.13587286    -0.07100
C3107       C  0.60117409  0.56351355  0.14112901     0.13800
C3108       C  0.62330499  0.55417426  0.16282229    -0.20600
C3109       C  0.64182333  0.57586481  0.17820427    -0.07100
C3110       C  0.63810828  0.60746831  0.17231518     0.13800
C3111       C  0.65766981  0.63143216  0.18811503    -0.23900
H3112       H  0.61217430  0.64112044  0.14702630     0.15100
H3113       H  0.62641019  0.52987022  0.16762241     0.15100
C3114       C  0.58209621  0.53984344  0.12440137    -0.23900
H3115       H  0.65074532  0.65514430  0.18141968     0.05300
H3116       H  0.68214104  0.62827820  0.18150010     0.08500
H3117       H  0.65536906  0.62936741  0.21359734     0.08500
H3118       H  0.58603651  0.54161115  0.09912184     0.08500
H3119       H  0.55731907  0.54376419  0.12930480     0.08500
H3120       H  0.58815286  0.51606070  0.13168488     0.05300
C3121       C  0.63555600  0.42794757  0.35869790    -0.20500
C3122       C  0.61263883  0.44509879  0.37366839    -0.07100
C3123       C  0.61059215  0.47696556  0.36859473     0.13800
C3124       C  0.63044849  0.49064712  0.34704388    -0.20600
C3125       C  0.65239955  0.47314755  0.33052765    -0.07100
C3126       C  0.65562533  0.44134218  0.33748989     0.13800
C3127       C  0.67868044  0.42051647  0.32174544    -0.23900
H3128       H  0.63635084  0.40323723  0.36217891     0.15100
H3129       H  0.62789756  0.51493470  0.34220050     0.15100
C3130       C  0.58643859  0.49608906  0.38458055    -0.23900
H3131       H  0.67711158  0.39637570  0.33001911     0.05300
H3132       H  0.70241962  0.42848852  0.32677902     0.08500
H3133       H  0.67442456  0.42017842  0.29641445     0.08500
H3134       H  0.58977479  0.49472426  0.41001264     0.08500
H3135       H  0.56316937  0.48743035  0.37854154     0.08500
H3136       H  0.58771009  0.52064650  0.37766349     0.05300
C3137       C  0.33085012  0.33161760  0.52281368    -0.20500
C3138       C  0.30309722  0.33422685  0.53968138    -0.07100
C3139       C  0.29074214  0.36415633  0.54376115     0.13800
C3140       C  0.30914685  0.38986462  0.53650326    -0.20600
C3141       C  0.34041336  0.38632113  0.52802136    -0.07100
C3142       C  0.34886650  0.35731266  0.51574352     0.13800
C3143       C  0.37846302  0.35211092  0.49836522    -0.23900
H3144       H  0.33934270  0.30922737  0.51567301     0.15100
H3145       H  0.29977646  0.41266316  0.54017565     0.15100
C3146       C  0.25881765  0.36943274  0.55621225    -0.23900
H3147       H  0.39369486  0.33627604  0.51157314     0.05300
H3148       H  0.37324543  0.34153619  0.47555631     0.08500
H3149       H  0.39103762  0.37376134  0.49404404     0.08500
H3150       H  0.25698569  0.35969554  0.57984616     0.08500
H3151       H  0.24163117  0.35844624  0.54071069     0.08500
H3152       H  0.25308969  0.39432903  0.55767584     0.05300
C3153       C  0.15978698  0.37482702  0.50378256    -0.20500
C3154       C  0.16924052  0.39028179  0.47690688    -0.07100
C3155       C  0.19433232  0.37647564  0.45995181     0.13800
C3156       C  0.20584201  0.34732292  0.46838087    -0.20600
C3157       C  0.19427114  0.33095245  0.49344027    -0.07100
C3158       C  0.17178999  0.34587410  0.51241604     0.13800
C3159       C  0.15910092  0.33152469  0.54149096    -0.23900
H3160       H  0.14081028  0.38416386  0.51697614     0.15100
H3161       H  0.22410831  0.33694327  0.45485205     0.15100
C3162       C  0.21012000  0.39133417  0.43274248    -0.23900
H3163       H  0.14183260  0.34654927  0.55300427     0.05300
H3164       H  0.17797554  0.32764645  0.55842448     0.08500
H3165       H  0.14743384  0.30950905  0.53587023     0.08500
H3166       H  0.22163525  0.41280722  0.44036067     0.08500
H3167       H  0.19385603  0.39559125  0.41356196     0.08500
H3168       H  0.22861329  0.37660230  0.42288969     0.05300
C3169       C  0.36230077  0.20386581  0.46728835    -0.20500
C3170       C  0.33186918  0.19327669  0.46530996    -0.07100
C3171       C  0.32689921  0.16132871  0.46142752     0.13800
C3172       C  0.35227145  0.14141022  0.45742644    -0.20600
C3173       C  0.38230601  0.15260518  0.45553398    -0.07100
C3174       C  0.38742281  0.18391129  0.46339522     0.13800
C3175       C  0.41923336  0.19664946  0.46879670    -0.23900
H3176       H  0.36653139  0.22768535  0.47353299     0.15100
H3177       H  0.34874372  0.11707490  0.45537270     0.15100
C3178       C  0.29492685  0.14808812  0.46259019    -0.23900
H3179       H  0.42057471  0.20665209  0.49241901     0.05300
H3180       H  0.42411099  0.21501479  0.45168890     0.08500
H3181       H  0.43731975  0.17862754  0.46715953     0.08500
H3182       H  0.28057825  0.15844791  0.44401805     0.08500
H3183       H  0.28428761  0.15307989  0.48537798     0.08500
H3184       H  0.29512101  0.12273530  0.45922886     0.05300
C3185       C  0.14076690  0.14895435  0.57920923    -0.20500
C3186       C  0.11676380  0.16244100  0.56215079    -0.07100
C3187       C  0.12241194  0.19128382  0.54799213     0.13800
C3188       C  0.14841354  0.20847578  0.55691096    -0.20600
C3189       C  0.17011122  0.19674151  0.57808705    -0.07100
C3190       C  0.16706692  0.16571600  0.58778908     0.13800
C3191       C  0.19068027  0.15026850  0.60824407    -0.23900
H3192       H  0.13844032  0.12565614  0.58731234     0.15100
H3193       H  0.15209577  0.23096456  0.54679057     0.15100
C3194       C  0.10189073  0.20320665  0.52242016    -0.23900
H3195       H  0.18320486  0.12697241  0.61556742     0.05300
H3196       H  0.19449127  0.16421256  0.62944827     0.08500
H3197       H  0.21267535  0.14741852  0.59557204     0.08500
H3198       H  0.07818245  0.20773936  0.53055420     0.08500
H3199       H  0.10099907  0.18595553  0.50345205     0.08500
H3200       H  0.11084198  0.22501145  0.51260580     0.05300
C3201       C  0.36207378  0.13245890  0.61227961    -0.20500
C3202       C  0.37224491  0.11149317  0.58964978    -0.07100
C3203       C  0.36188440  0.11447031  0.55891859     0.13800
C3204       C  0.34005918  0.13730260  0.55199215    -0.20600
C3205       C  0.32894209  0.15745572  0.57496102    -0.07100
C3206       C  0.34087880  0.15569657  0.60524629     0.13800
C3207       C  0.33021319  0.17705346  0.63058152    -0.23900
H3208       H  0.37007999  0.12987560  0.63591364     0.15100
H3209       H  0.33132287  0.13911767  0.52854544     0.15100
C3210       C  0.37264081  0.09350241  0.53331529    -0.23900
H3211       H  0.34109982  0.17137947  0.65315296     0.05300
H3212       H  0.30487630  0.17529666  0.63332130     0.08500
H3213       H  0.33647737  0.20110951  0.62484374     0.08500
H3214       H  0.38985140  0.07635068  0.54129079     0.08500
H3215       H  0.38341067  0.10742893  0.51477879     0.08500
H3216       H  0.35267480  0.08094130  0.52344126     0.05300
C3217       C  0.15693244  0.14281447  0.49232213    -0.20500
C3218       C  0.17178150  0.16605175  0.47519703    -0.07100
C3219       C  0.16416626  0.16951085  0.44341733     0.13800
C3220       C  0.14442839  0.14819255  0.42946966    -0.20600
C3221       C  0.13108848  0.12414389  0.44626651    -0.07100
C3222       C  0.13651755  0.12199965  0.47822916     0.13800
C3223       C  0.12175597  0.09701623  0.49706752    -0.23900
H3224       H  0.16213820  0.14014458  0.51666180     0.15100
H3225       H  0.14034563  0.14936705  0.40474871     0.15100
C3226       C  0.17770744  0.19429860  0.42325370    -0.23900
H3227       H  0.12867267  0.09838675  0.52177116     0.05300
H3228       H  0.12868432  0.07407945  0.48805227     0.08500
H3229       H  0.09632350  0.09930438  0.49567022     0.08500
H3230       H  0.20314434  0.19192962  0.42248828     0.08500
H3231       H  0.17114356  0.21732946  0.43230284     0.08500
H3232       H  0.16913768  0.19288994  0.39905587     0.05300
C3233       C  0.42965272  0.18622253  0.32041340    -0.20500
C3234       C  0.46024850  0.19126713  0.31280699    -0.07100
C3235       C  0.48379206  0.17705464  0.33069927     0.13800
C3236       C  0.47591534  0.15744583  0.35531763    -0.20600
C3237       C  0.44508739  0.15148111  0.36266122    -0.07100
C3238       C  0.42142859  0.16655746  0.34463507     0.13800
C3239       C  0.38703442  0.16245506  0.34972306    -0.23900
H3240       H  0.41191397  0.19708654  0.30646552     0.15100
H3241       H  0.49407873  0.14706317  0.36889874     0.15100
C3242       C  0.51739450  0.18326898  0.32468554    -0.23900
H3243       H  0.37318291  0.17720567  0.33396409     0.05300
H3244       H  0.37997628  0.16907991  0.37335544     0.08500
H3245       H  0.37971651  0.13861288  0.34469518     0.08500
H3246       H  0.52166414  0.20845650  0.32516481     0.08500
H3247       H  0.52427520  0.17370576  0.30192246     0.08500
H3248       H  0.53243692  0.17243567  0.34243051     0.05300
C3249       C  0.50904680  0.32741742  0.32921138    -0.20500
C3250       C  0.53335021  0.31821378  0.30927792    -0.07100
C3251       C  0.56327250  0.32838328  0.31631713     0.13800
C3252       C  0.56758970  0.34819012  0.34157744    -0.20600
C3253       C  0.54296163  0.35975276  0.35997677    -0.07100
C3254       C  0.51327815  0.34795912  0.35412543     0.13800
C3255       C  0.48584615  0.35610157  0.37360562    -0.23900
H3256       H  0.48594746  0.31913254  0.32490959     0.15100
H3257       H  0.59087161  0.35565101  0.34659764     0.15100
C3258       C  0.59088952  0.31902023  0.29742804    -0.23900
H3259       H  0.46529645  0.34233177  0.36718153     0.05300
H3260       H  0.47961827  0.38057989  0.36990394     0.08500
H3261       H  0.49087198  0.35128318  0.39832081     0.08500
H3262       H  0.58835932  0.32757272  0.27337860     0.08500
H3263       H  0.59326534  0.29356777  0.29740599     0.08500
H3264       H  0.61258339  0.32874788  0.30689022     0.05300
C3265       C  0.56239470  0.15885079  0.12436813    -0.20500
C3266       C  0.55533417  0.12979138  0.13671943    -0.07100
C3267       C  0.54371723  0.12879079  0.16716733     0.13800
C3268       C  0.54585037  0.15479719  0.18624634    -0.20600
C3269       C  0.55692151  0.18333010  0.17541717    -0.07100
C3270       C  0.56379963  0.18556291  0.14333188     0.13800
C3271       C  0.57342654  0.21553239  0.12895955    -0.23900
H3272       H  0.56875171  0.16037070  0.10025258     0.15100
H3273       H  0.53821143  0.15252959  0.20996701     0.15100
C3274       C  0.52957936  0.10003643  0.18037879    -0.23900
H3275       H  0.57869931  0.21282424  0.10397118     0.05300
H3276       H  0.59447956  0.22423774  0.14061604     0.08500
H3277       H  0.55456162  0.23270083  0.13110675     0.08500
H3278       H  0.54339520  0.09186333  0.20040294     0.08500
H3279       H  0.52793269  0.08125209  0.16302516     0.08500
H3280       H  0.50588642  0.10515256  0.18832363     0.05300
C3281       C  0.41964602  0.32905413  0.15100367    -0.20500
C3282       C  0.43631207  0.33068978  0.17864849    -0.07100
C3283       C  0.45451068  0.35725285  0.18421348     0.13800
C3284       C  0.45528171  0.38104630  0.16199463    -0.20600
C3285       C  0.43665163  0.38050629  0.13530564    -0.07100
C3286       C  0.41792604  0.35396359  0.13050832     0.13800
C3287       C  0.39318755  0.35157718  0.10630370    -0.23900
H3288       H  0.40579832  0.30881370  0.14638406     0.15100
H3289       H  0.46833687  0.40171621  0.16695568     0.15100
C3290       C  0.47285952  0.36117705  0.21360224    -0.23900
H3291       H  0.37115042  0.34454794  0.11711198     0.05300
H3292       H  0.39959578  0.33383078  0.08895513     0.08500
H3293       H  0.38860900  0.37357257  0.09495910     0.08500
H3294       H  0.48944696  0.34192772  0.21637042     0.08500
H3295       H  0.45709021  0.36181057  0.23374495     0.08500
H3296       H  0.48614326  0.38297625  0.21367430     0.05300
C3297       C  0.52236151  0.36911980  0.09290105    -0.20500
C3298       C  0.54125701  0.39162488  0.10639763    -0.07100
C3299       C  0.54180099  0.39387869  0.13886373     0.13800
C3300       C  0.53283774  0.36828020  0.15630120    -0.20600
C3301       C  0.52041516  0.34199300  0.14193428    -0.07100
C3302       C  0.51210499  0.34389838  0.11017970     0.13800
C3303       C  0.49453677  0.31892695  0.09358122    -0.23900
H3304       H  0.51976056  0.36879511  0.06794534     0.15100
H3305       H  0.53600583  0.36867645  0.18116560     0.15100
C3306       C  0.55110231  0.42307290  0.15507017    -0.23900
H3307       H  0.49051027  0.32467522  0.06886957     0.05300
H3308       H  0.47163604  0.31592729  0.10445586     0.08500
H3309       H  0.50767777  0.29698244  0.09433408     0.08500
H3310       H  0.53580185  0.44213760  0.14744515     0.08500
H3311       H  0.57507161  0.42918619  0.14986192     0.08500
H3312       H  0.54904028  0.42093903  0.18057391     0.05300
C3313       C  0.47469155  0.16677622  0.11308543    -0.20500
C3314       C  0.46741737  0.16470491  0.14460370    -0.07100
C3315       C  0.44889758  0.14025314  0.15530694     0.13800
C3316       C  0.43543300  0.12056113  0.13363383    -0.20600
C3317       C  0.43920363  0.12557312  0.10193634    -0.07100
C3318       C  0.46085138  0.14726384  0.09152430     0.13800
C3319       C  0.46897622  0.15087065  0.05788022    -0.23900
H3320       H  0.49002273  0.18471028  0.10507028     0.15100
H3321       H  0.41939078  0.10332535  0.14142622     0.15100
C3322       C  0.44050009  0.13659432  0.18895052    -0.23900
H3323       H  0.49423797  0.14816478  0.05499523     0.05300
H3324       H  0.46201907  0.17411770  0.04978066     0.08500
H3325       H  0.45770674  0.13334953  0.04303166     0.08500
H3326       H  0.42857479  0.15765255  0.19731900     0.08500
H3327       H  0.46145082  0.13253759  0.20307137     0.08500
H3328       H  0.42484922  0.11677758  0.19266304     0.05300
C3329       C  0.32963209  0.52128791  0.31343823    -0.20500
C3330       C  0.30500301  0.54245391  0.31151765    -0.07100
C3331       C  0.30292203  0.56593143  0.33376254     0.13800
C3332       C  0.32578545  0.56822331  0.35646538    -0.20600
C3333       C  0.35084433  0.54713086  0.35900156    -0.07100
C3334       C  0.35259165  0.52337650  0.33649386     0.13800
C3335       C  0.37846428  0.50029634  0.33592330    -0.23900
H3336       H  0.33091908  0.50281243  0.29658992     0.15100
H3337       H  0.32476527  0.58828310  0.37127355     0.15100
C3338       C  0.27637935  0.58844468  0.33426043    -0.23900
H3339       H  0.37629711  0.48403207  0.31618610     0.05300
H3340       H  0.37798716  0.48633330  0.35735341     0.08500
H3341       H  0.40086509  0.51220589  0.33344611     0.08500
H3342       H  0.25430780  0.57580454  0.33636615     0.08500
H3343       H  0.27626078  0.60231781  0.31273973     0.08500
H3344       H  0.27792832  0.60467827  0.35408288     0.05300
C3345       C  0.35791740  0.48887807  0.15664931    -0.20500
C3346       C  0.36117190  0.45971847  0.14297302    -0.07100
C3347       C  0.33875596  0.43641809  0.15049268     0.13800
C3348       C  0.31498845  0.44312408  0.17119910    -0.20600
C3349       C  0.31179298  0.47211428  0.18413922    -0.07100
C3350       C  0.33331368  0.49542723  0.17681608     0.13800
C3351       C  0.33059035  0.52718269  0.19069578    -0.23900
H3352       H  0.37459547  0.50662672  0.15185387     0.15100
H3353       H  0.29783349  0.42584731  0.17651216     0.15100
C3354       C  0.33894229  0.40386237  0.13762877    -0.23900
H3355       H  0.35000817  0.54218703  0.18371867     0.05300
H3356       H  0.33062985  0.52554906  0.21632653     0.08500
H3357       H  0.30895346  0.53840065  0.18289515     0.08500
H3358       H  0.33648576  0.40356750  0.11218989     0.08500
H3359       H  0.35980291  0.39126143  0.14487272     0.08500
H3360       H  0.31938939  0.39003398  0.14643227     0.05300
C3361       C  0.17881379  0.56114983  0.14215282    -0.20500
C3362       C  0.17664829  0.57825030  0.16990452    -0.07100
C3363       C  0.15007382  0.59673181  0.17446324     0.13800
C3364       C  0.12782055  0.59888722  0.15070876    -0.20600
C3365       C  0.13042790  0.58212817  0.12294567    -0.07100
C3366       C  0.15605871  0.56254238  0.11907719     0.13800
C3367       C  0.16033486  0.54456799  0.08947878    -0.23900
H3368       H  0.19869784  0.54661509  0.13810876     0.15100
H3369       H  0.10978215  0.61591531  0.15280344     0.15100
C3370       C  0.14555684  0.61552190  0.20342805    -0.23900
H3371       H  0.18176801  0.53065706  0.08984367     0.05300
H3372       H  0.16186304  0.56036631  0.06941689     0.08500
H3373       H  0.14053721  0.52882103  0.08605565     0.08500
H3374       H  0.16539209  0.63122591  0.20682236     0.08500
H3375       H  0.14329065  0.60006584  0.22369450     0.08500
H3376       H  0.12431959  0.62980075  0.20224786     0.05300
C3377       C  0.18924463  0.46768817  0.35186235    -0.20500
C3378       C  0.17608785  0.45104161  0.32719577    -0.07100
C3379       C  0.14697713  0.43717107  0.33193694     0.13800
C3380       C  0.13263201  0.43957871  0.36107749    -0.20600
C3381       C  0.14668060  0.45461382  0.38627188    -0.07100
C3382       C  0.17454074  0.47054186  0.38068694     0.13800
C3383       C  0.18857220  0.49213534  0.40408507    -0.23900
H3384       H  0.21036656  0.48035105  0.34809750     0.15100
H3385       H  0.11058005  0.42877085  0.36421268     0.15100
C3386       C  0.13086169  0.41948967  0.30662206    -0.23900
H3387       H  0.19123879  0.51527702  0.39356772     0.05300
H3388       H  0.21160050  0.48346502  0.41117914     0.08500
H3389       H  0.17399493  0.49504698  0.42491173     0.08500
H3390       H  0.14651041  0.40152483  0.29723593     0.08500
H3391       H  0.12350765  0.43524079  0.28784105     0.08500
H3392       H  0.10985402  0.40784181  0.31525752     0.05300
C3393       C  0.14936122  0.59109293  0.32742202    -0.20500
C3394       C  0.14309879  0.56074242  0.31881425    -0.07100
C3395       C  0.12050007  0.54387049  0.33498978     0.13800
C3396       C  0.10510310  0.55782417  0.35987834    -0.20600
C3397       C  0.11079970  0.58856412  0.36769892    -0.07100
C3398       C  0.13300619  0.60553888  0.35091099     0.13800
C3399       C  0.13936735  0.63932035  0.35600861    -0.23900
H3400       H  0.16643737  0.60419504  0.31481415     0.15100
H3401       H  0.08710359  0.54545383  0.37187582     0.15100
C3402       C  0.11243213  0.51146048  0.32605809    -0.23900
H3403       H  0.16400295  0.64250719  0.36208111     0.05300
H3404       H  0.12547842  0.64968812  0.37462332     0.08500
H3405       H  0.13429617  0.65223193  0.33443323     0.08500
H3406       H  0.13360619  0.49738894  0.32608800     0.08500
H3407       H  0.10202086  0.51109618  0.30259584     0.08500
H3408       H  0.09579290  0.50100601  0.34239105     0.05300
C3409       C  0.13060053  0.45499544  0.10380340    -0.20500
C3410       C  0.09941855  0.45507323  0.11200147    -0.07100
C3411       C  0.08917285  0.47483548  0.13567372     0.13800
C3412       C  0.11092398  0.48848362  0.15502328    -0.20600
C3413       C  0.14253728  0.48306983  0.15079271    -0.07100
C3414       C  0.15264445  0.46811590  0.12344497     0.13800
C3415       C  0.18624447  0.46298607  0.11616924    -0.23900
H3416       H  0.13826122  0.44106467  0.08448220     0.15100
H3417       H  0.10299840  0.50208261  0.17451430     0.15100
C3418       C  0.05556045  0.48111840  0.14148960    -0.23900
H3419       H  0.18942778  0.45022067  0.09410716     0.05300
H3420       H  0.19726923  0.44926349  0.13481252     0.08500
H3421       H  0.19823032  0.48533311  0.11389164     0.08500
H3422       H  0.05129385  0.50632321  0.14064767     0.08500
H3423       H  0.04049613  0.47027162  0.12382661     0.08500
H3424       H  0.04907618  0.47241512  0.16468969     0.05300
C3425       C  0.84187466  0.83255062  0.99609546    -0.20500
C3426       C  0.81158554  0.83109889  0.00780318    -0.07100
C3427       C  0.79574194  0.85914645  0.01273165     0.13800
C3428       C  0.81223601  0.88693033  0.01134494    -0.20600
C3429       C  0.84465431  0.88691304  0.00875675    -0.07100
C3430       C  0.85818412  0.86042384  0.99533376     0.13800
C3431       C  0.89030851  0.86107371  0.98218596    -0.23900
H3432       H  0.85344431  0.81166483  0.98873303     0.15100
H3433       H  0.79997069  0.90829237  0.01511970     0.15100
C3434       C  0.76169953  0.86012782  0.01928410    -0.23900
H3435       H  0.89695065  0.83839139  0.97231184     0.05300
H3436       H  0.90762503  0.86711663  0.00001136     0.08500
H3437       H  0.89128605  0.87833625  0.96332900     0.08500
H3438       H  0.75680528  0.84891032  0.04175295     0.08500
H3439       H  0.74897534  0.84819560  0.00048420     0.08500
H3440       H  0.75290881  0.88412764  0.02069700     0.05300
C3441       C  0.67832985  0.83837383  0.98700295    -0.20500
C3442       C  0.68686465  0.81805614  0.96284973    -0.07100
C3443       C  0.67381888  0.82256378  0.93340190     0.13800
C3444       C  0.65272231  0.84662763  0.92917334    -0.20600
C3445       C  0.64307372  0.86655976  0.95346307    -0.07100
C3446       C  0.65677942  0.86233236  0.98290672     0.13800
C3447       C  0.64993869  0.88269403  0.01018303    -0.23900
H3448       H  0.68856166  0.83544719  0.00969553     0.15100
H3449       H  0.64374829  0.85021493  0.90603631     0.15100
C3450       C  0.68140139  0.80206231  0.90625942    -0.23900
H3451       H  0.66449647  0.87687018  0.03052238     0.05300
H3452       H  0.62571840  0.87941427  0.01743473     0.08500
H3453       H  0.65476771  0.90705636  0.00431194     0.08500
H3454       H  0.67536568  0.77786024  0.91170885     0.08500
H3455       H  0.70627889  0.80374584  0.90076975     0.08500
H3456       H  0.66838722  0.80871323  0.88514162     0.05300
C3457       C  0.67722421  0.66279868  0.07902992    -0.20500
C3458       C  0.67695796  0.69184824  0.06464020    -0.07100
C3459       C  0.64974174  0.70099031  0.04900580     0.13800
C3460       C  0.62351967  0.68213588  0.05012061    -0.20600
C3461       C  0.62287746  0.65402491  0.06646463    -0.07100
C3462       C  0.65126209  0.64333857  0.07915916     0.13800
C3463       C  0.65688875  0.61116702  0.09061134    -0.23900
H3464       H  0.69860782  0.65432304  0.08890369     0.15100
H3465       H  0.60251153  0.69016889  0.03913813     0.15100
C3466       C  0.64816672  0.73008579  0.03007281    -0.23900
H3467       H  0.67495030  0.60018300  0.07614571     0.05300
H3468       H  0.63670917  0.59625315  0.08927918     0.08500
H3469       H  0.66552605  0.61180775  0.11473587     0.08500
H3470       H  0.66564941  0.72926242  0.01139529     0.08500
H3471       H  0.65224404  0.75038963  0.04513726     0.08500
H3472       H  0.62530382  0.73318629  0.01892563     0.05300
C3473       C  0.82205971  0.64764588  0.94530288    -0.20500
C3474       C  0.81542468  0.67183300  0.92457161    -0.07100
C3475       C  0.83268452  0.67429099  0.89739303     0.13800
C3476       C  0.85930467  0.65613963  0.89430393    -0.20600
C3477       C  0.86999211  0.63726531  0.91891872    -0.07100
C3478       C  0.84932682  0.63035633  0.94291946     0.13800
C3479       C  0.85539721  0.60550084  0.96635615    -0.23900
H3480       H  0.80769897  0.64462511  0.96553005     0.15100
H3481       H  0.87378271  0.65949935  0.87422380     0.15100
C3482       C  0.82448162  0.69769102  0.87311543    -0.23900
H3483       H  0.85294143  0.61468809  0.99002942     0.05300
H3484       H  0.87858930  0.59516038  0.96411628     0.08500
H3485       H  0.83809762  0.58698630  0.96336141     0.08500
H3486       H  0.82540777  0.72122577  0.88311815     0.08500
H3487       H  0.80084883  0.69319858  0.86440803     0.08500
H3488       H  0.84055037  0.69667313  0.85320022     0.05300
C3489       C  0.66493777  0.66417706  0.92579397    -0.20500
C3490       C  0.67580501  0.65664217  0.95534672    -0.07100
C3491       C  0.66172388  0.63232133  0.97173100     0.13800
C3492       C  0.63719156  0.61620341  0.95793560    -0.20600
C3493       C  0.62793645  0.62252042  0.92749183    -0.07100
C3494       C  0.64244301  0.64671951  0.91111918     0.13800
C3495       C  0.63735832  0.65325710  0.87720521    -0.23900
H3496       H  0.67581488  0.68251181  0.91283424     0.15100
H3497       H  0.62715888  0.59673243  0.96983406     0.15100
C3498       C  0.67282571  0.62277373  0.00322301    -0.23900
H3499       H  0.62905027  0.67725855  0.87427929     0.05300
H3500       H  0.62079174  0.63760548  0.86604497     0.08500
H3501       H  0.65946862  0.65066694  0.86462404     0.08500
H3502       H  0.67278218  0.64305086  0.01866868     0.08500
H3503       H  0.69653209  0.61332337  0.00164906     0.08500
H3504       H  0.65791904  0.60482548  0.01356150     0.05300
C3505       C  0.86720494  0.65596216  0.03281525    -0.20500
C3506       C  0.84268537  0.66845172  0.04971777    -0.07100
C3507       C  0.83927537  0.66159903  0.08115270     0.13800
C3508       C  0.85885716  0.63992908  0.09443287    -0.20600
C3509       C  0.88100723  0.62400620  0.07663630    -0.07100
C3510       C  0.88641197  0.63329803  0.04582038     0.13800
C3511       C  0.91101117  0.61865394  0.02614161    -0.23900
H3512       H  0.87011218  0.66265427  0.00885802     0.15100
H3513       H  0.85606491  0.63450422  0.11872596     0.15100
C3514       C  0.81428618  0.67632876  0.10033921    -0.23900
H3515       H  0.91029660  0.62738007  0.00202380     0.05300
H3516       H  0.90788426  0.59331326  0.02543956     0.08500
H3517       H  0.93409137  0.62430091  0.03538496     0.08500
H3518       H  0.79135396  0.67054690  0.09056990     0.08500
H3519       H  0.81719667  0.70170982  0.10032459     0.08500
H3520       H  0.81495544  0.66830035  0.12470939     0.05300
C3521       C  0.32558843  0.83568640  0.49845765    -0.20500
C3522       C  0.30906322  0.82268638  0.47329969    -0.07100
C3523       C  0.31095129  0.83697091  0.44429294     0.13800
C3524       C  0.33068738  0.86198361  0.44080294    -0.20600
C3525       C  0.34890063  0.87420514  0.46538338    -0.07100
C3526       C  0.34543427  0.86104700  0.49496623     0.13800
C3527       C  0.36301348  0.87225937  0.52271885    -0.23900
H3528       H  0.32392925  0.82521056  0.52110326     0.15100
H3529       H  0.33336662  0.87100684  0.41761678     0.15100
C3530       C  0.29257118  0.82619355  0.41667867    -0.23900
H3531       H  0.35708003  0.85914971  0.54389599     0.05300
H3532       H  0.35719988  0.89674896  0.52722628     0.08500
H3533       H  0.38807130  0.86921468  0.51884983     0.08500
H3534       H  0.26767719  0.82608402  0.42242910     0.08500
H3535       H  0.30012574  0.80278926  0.40965780     0.08500
H3536       H  0.29566243  0.84148771  0.39636783     0.05300
C3537       C  0.18702974  0.84776211  0.53240822    -0.20500
C3538       C  0.17662632  0.81783905  0.53819943    -0.07100
C3539       C  0.14448381  0.81267201  0.53950556     0.13800
C3540       C  0.12402099  0.83754716  0.53718493    -0.20600
C3541       C  0.13443670  0.86818280  0.53661384    -0.07100
C3542       C  0.16640308  0.87281321  0.53067958     0.13800
C3543       C  0.17981362  0.90395648  0.52359107    -0.23900
H3544       H  0.21132882  0.85152321  0.52822797     0.15100
H3545       H  0.09972620  0.83258799  0.53680891     0.15100
C3546       C  0.13140170  0.78085820  0.54407058    -0.23900
H3547       H  0.19199293  0.90293105  0.50106492     0.05300
H3548       H  0.19654391  0.91047107  0.54190915     0.08500
H3549       H  0.16220681  0.92228715  0.52183755     0.08500
H3550       H  0.14188582  0.77013911  0.56489203     0.08500
H3551       H  0.13591340  0.76630645  0.52352089     0.08500
H3552       H  0.10607041  0.78140061  0.54746368     0.05300
C3553       C  0.17972419  0.66484342  0.43158732    -0.20500
C3554       C  0.17637621  0.69696267  0.43530191    -0.07100
C3555       C  0.14671904  0.70817664  0.44382754     0.13800
C3556       C  0.12240502  0.68753941  0.44805173    -0.20600
C3557       C  0.12415874  0.65645856  0.43908409    -0.07100
C3558       C  0.15424223  0.64445127  0.43357613     0.13800
C3559       C  0.16053414  0.61045543  0.43169890    -0.23900
H3560       H  0.20249527  0.65552410  0.42738462     0.15100
H3561       H  0.10073004  0.69652586  0.45653163     0.15100
C3562       C  0.13952621  0.74196189  0.44838841    -0.23900
H3563       H  0.18555686  0.60543303  0.43002012     0.05300
H3564       H  0.14964477  0.60032396  0.41116943     0.08500
H3565       H  0.15186300  0.59896506  0.45280421     0.08500
H3566       H  0.14647714  0.75515161  0.42759648     0.08500
H3567       H  0.15133302  0.75090532  0.46924615     0.08500
H3568       H  0.11454679  0.74622246  0.45187893     0.05300
C3569       C  0.35228248  0.63791789  0.55457225    -0.20500
C3570       C  0.37868670  0.65298005  0.54385578    -0.07100
C3571       C  0.37511968  0.68362135  0.53301749     0.13800
C3572       C  0.34775630  0.69994572  0.53910375    -0.20600
C3573       C  0.32248532  0.68601714  0.55375968    -0.07100
C3574       C  0.32439080  0.65386429  0.55984255     0.13800
C3575       C  0.29760005  0.63606925  0.57268081    -0.23900
H3576       H  0.35380066  0.61378709  0.56038056     0.15100
H3577       H  0.34605505  0.72369720  0.53164009     0.15100
C3578       C  0.39998359  0.69971990  0.51504527    -0.23900
H3579       H  0.30384768  0.61176697  0.57769026     0.05300
H3580       H  0.27849291  0.63561865  0.55560256     0.08500
H3581       H  0.28969273  0.64678807  0.59460202     0.08500
H3582       H  0.41967812  0.68424302  0.50981696     0.08500
H3583       H  0.40832665  0.72003743  0.52819531     0.08500
H3584       H  0.39063739  0.70780926  0.49268828     0.05300
C3585       C  0.15939583  0.62285400  0.51555651    -0.20500
C3586       C  0.15591736  0.65476340  0.51903457    -0.07100
C3587       C  0.12893713  0.66667565  0.53319309     0.13800
C3588       C  0.10900840  0.64630891  0.54790919    -0.20600
C3589       C  0.11591792  0.61492672  0.54911432    -0.07100
C3590       C  0.13918785  0.60266919  0.53001759     0.13800
C3591       C  0.14419523  0.56855638  0.52615872    -0.23900
H3592       H  0.17905131  0.61359798  0.50319338     0.15100
H3593       H  0.09040894  0.65541928  0.56190310     0.15100
C3594       C  0.12240766  0.70066631  0.53596797    -0.23900
H3595       H  0.14321143  0.56253197  0.50120487     0.05300
H3596       H  0.12631280  0.55488262  0.53812327     0.08500
H3597       H  0.16713502  0.56201175  0.53548117     0.08500
H3598       H  0.12036461  0.71099843  0.51261427     0.08500
H3599       H  0.14113407  0.71199952  0.54921682     0.08500
H3600       H  0.10048757  0.70536983  0.54830150     0.05300
C3601       C  0.33651524  0.62629823  0.47915792    -0.20500
C3602       C  0.33480680  0.65608997  0.46648347    -0.07100
C3603       C  0.35944246  0.66627454  0.44742908     0.13800
C3604       C  0.38285694  0.64534794  0.43934089    -0.20600
C3605       C  0.38030529  0.61419090  0.44680784    -0.07100
C3606       C  0.35900124  0.60531629  0.46958986     0.13800
C3607       C  0.35830506  0.57312730  0.48241161    -0.23900
H3608       H  0.31916654  0.61847506  0.49526703     0.15100
H3609       H  0.40068592  0.65234217  0.42338955     0.15100
C3610       C  0.36034555  0.69798626  0.43323207    -0.23900
H3611       H  0.36047123  0.57405283  0.50799104     0.05300
H3612       H  0.37750310  0.55878586  0.47343062     0.08500
H3613       H  0.33616419  0.56195850  0.47624663     0.08500
H3614       H  0.35899586  0.71599969  0.45137472     0.08500
H3615       H  0.34085388  0.70077438  0.41681025     0.08500
H3616       H  0.38189259  0.70183981  0.42003988     0.05300
loop_ 
_geom_bond_atom_site_label_1 
_geom_bond_atom_site_label_2 
_geom_bond_distance 
_geom_bond_site_symmetry_2 
_ccdc_geom_bond_type 
O1           C17   1.269       .  A
O1           Zn7   1.975       .  S
C2           O18   1.260       .  A
C2           O15   1.287       .  A
C2         C3538   1.479       .  S
O3           C16   1.274       .  A
O3          Cd10   2.151       .  S
O4           C22   1.270       .  A
O4          Cd13   2.010       .  S
O5           C19   1.268       .  A
O5           Cd9   2.021       .  S
O6           C17   1.276       .  A
O6           Cd9   2.055       .  S
Zn7          O18   1.913       .  S
Zn7          O20   1.945       .  S
Zn7          O12   1.872       .  S
O8           C19   1.280       .  A
O8          Cd13   2.116       .  S
Cd9          O11   2.066       .  S
Cd9          O12   1.966       .  S
Cd10         O14   2.059       .  S
Cd10         O23   2.130       .  S
Cd10         O12   1.977       .  S
O11          C21   1.276       .  A
O12         Cd13   1.979       .  S
Cd13         O15   2.147       .  S
O14          C21   1.272       .  A
C16          O20   1.256       .  A
C16        C3554   1.512       .  S
C17        C3586   1.469       .  S
C19        C3573   1.506       .  S
C21        C3602   1.491       .  S
C22          O23   1.291       .  A
C22        C3522   1.491       .  S
O24          C40   1.272   1_556  A
O24         Zn30   1.953       .  S
C25          O41   1.272       .  A
C25          O38   1.278       .  A
C25        C3506   1.454       .  S
O26          C39   1.281       .  A
O26         Cd33   2.118       .  S
O27          C45   1.279       .  A
O27         Cd36   2.088   1_556  S
O28          C42   1.285       .  A
O28         Cd32   2.125       .  S
O29          C40   1.292       .  A
O29         Cd32   2.139       .  S
Zn30         O41   1.975   1_556  S
Zn30         O43   1.941       .  S
Zn30         O35   1.834       .  S
O31          C42   1.269       .  A
O31         Cd36   2.026       .  S
Cd32         O34   2.019   1_554  S
Cd32         O35   1.924   1_554  S
Cd33         O37   2.115       .  S
Cd33         O46   2.027       .  S
Cd33         O35   1.937       .  S
O34          C44   1.270       .  A
O35         Cd36   1.943   1_556  S
Cd36         O38   2.067       .  S
O37          C44   1.287       .  A
C39          O43   1.267       .  A
C39        C3474   1.474       .  S
C40        C3426   1.493       .  S
C42        C3458   1.497       .  S
C44        C3442   1.494       .  S
C45          O46   1.273       .  A
C45        C3490   1.479       .  S
O47          C63   1.267       .  A
O47         Zn53   1.949       .  S
C48          O64   1.272       .  A
C48          O61   1.276       .  A
C48        C3413   1.474       .  S
O49          C62   1.275       .  A
O49         Cd56   2.114       .  S
O50          C68   1.274       .  A
O50         Cd59   2.066       .  S
O51          C65   1.282       .  A
O51         Cd55   2.106       .  S
O52          C63   1.286       .  A
O52         Cd55   2.116       .  S
Zn53         O64   1.990       .  S
Zn53         O66   1.962       .  S
Zn53         O58   1.890       .  S
O54          C65   1.272       .  A
O54         Cd59   2.051       .  S
Cd55         O57   2.020       .  S
Cd55         O58   1.949       .  S
Cd56         O60   2.114       .  S
Cd56         O69   2.028       .  S
Cd56         O58   1.959       .  S
O57          C67   1.269       .  A
O58         Cd59   1.965       .  S
Cd59         O61   2.052       .  S
O60          C67   1.287       .  A
C62          O66   1.264       .  A
C62        C3362   1.503       .  S
C63        C3349   1.471       .  S
C65        C3378   1.496       .  S
C67        C3330   1.484       .  S
C68          O69   1.271       .  A
C68        C3394   1.469       .  S
O70          C86   1.267       .  A
O70         Zn76   1.960       .  S
C71          O87   1.272       .  A
C71          O84   1.274       .  A
C71        C3314   1.464       .  S
O72          C85   1.277       .  A
O72         Cd79   2.145       .  S
O73          C91   1.271       .  A
O73         Cd82   2.049       .  S
O74          C88   1.274       .  A
O74         Cd78   2.093       .  S
O75          C86   1.286       .  A
O75         Cd78   2.113       .  S
Zn76         O87   1.991       .  S
Zn76         O89   1.953       .  S
Zn76         O81   1.889       .  S
O77          C88   1.270       .  A
O77         Cd82   2.022       .  S
Cd78         O80   2.006       .  S
Cd78         O81   1.961       .  S
Cd79         O83   2.147       .  S
Cd79         O92   2.079       .  S
Cd79         O81   1.976       .  S
O80          C90   1.269       .  A
O81         Cd82   1.961       .  S
Cd82         O84   2.041       .  S
O83          C90   1.292       .  A
C85          O89   1.264       .  A
C85        C3269   1.513       .  S
C86        C3234   1.481       .  S
C88        C3282   1.495       .  S
C90        C3250   1.502       .  S
C91          O92   1.278       .  A
C91        C3301   1.487       .  S
O93         C109   1.271       .  A
O93         Zn99   1.950       .  S
C94         O110   1.278       .  A
C94         O107   1.276       .  A
C94        C3205   1.471       .  S
O95         C108   1.286       .  A
O95        Cd102   2.143       .  S
O96         C114   1.279       .  A
O96        Cd105   2.068       .  S
O97         C111   1.279       .  A
O97        Cd101   2.109       .  S
O98         C109   1.286       .  A
O98        Cd101   2.129       .  S
Zn99        O110   2.004       .  S
Zn99        O112   1.918       .  S
Zn99        O104   1.857       .  S
O100        C111   1.263       .  A
O100       Cd105   2.015       .  S
Cd101       O103   2.018       .  S
Cd101       O104   1.970       .  S
Cd102       O106   2.160       .  S
Cd102       O115   2.080       .  S
Cd102       O104   1.951       .  S
O103        C113   1.263       .  A
O104       Cd105   1.935       .  S
Cd105       O107   2.057       .  S
O106        C113   1.292       .  A
C108        O112   1.262       .  A
C108       C3170   1.476       .  S
C109       C3138   1.502       .  S
C111       C3189   1.493       .  S
C113       C3157   1.507       .  S
C114        O115   1.279       .  A
C114       C3218   1.492       .  S
O116        C132   1.277       .  A
O116       Zn122   1.999       .  S
C117        O133   1.269       .  A
C117        O130   1.286       .  A
C117       C3042   1.505       .  S
O118        C131   1.290       .  A
O118       Cd125   2.166       .  S
O119        C137   1.268       .  A
O119       Cd128   1.999       .  S
O120        C134   1.260       .  A
O120       Cd124   2.005       .  S
O121        C132   1.272       .  A
O121       Cd124   2.036       .  S
Zn122       O133   1.960       .  S
Zn122       O135   1.894       .  S
Zn122       O127   1.845       .  S
O123        C134   1.278       .  A
O123       Cd128   2.118       .  S
Cd124       O126   2.064       .  S
Cd124       O127   1.946       .  S
Cd125       O129   2.071       .  S
Cd125       O138   2.150       .  S
Cd125       O127   1.960       .  S
O126        C136   1.276       .  A
O127       Cd128   1.971       .  S
Cd128       O130   2.134       .  S
O129        C136   1.276       .  A
C131        O135   1.256       .  A
C131       C3074   1.498       .  S
C132       C3109   1.459       .  S
C134       C3093   1.495       .  S
C136       C3125   1.491       .  S
C137        O138   1.292       .  A
C137       C3058   1.488       .  S
O139        C155   1.274       .  A
O139       Zn145   1.980       .  S
C140        O156   1.265       .  A
C140        O153   1.288       .  A
C140       C2946   1.504       .  S
O141        C154   1.287       .  A
O141       Cd148   2.150       .  S
O142        C160   1.269   1_455  A
O142       Cd151   2.009       .  S
O143        C157   1.269       .  A
O143       Cd147   2.024       .  S
O144        C155   1.273       .  A
O144       Cd147   2.058       .  S
Zn145       O156   1.930       .  S
Zn145       O158   1.888   1_455  S
Zn145       O150   1.832       .  S
O146        C157   1.284       .  A
O146       Cd151   2.122       .  S
Cd147       O149   2.048   1_455  S
Cd147       O150   1.930       .  S
Cd148       O152   2.087       .  S
Cd148       O161   2.134       .  S
Cd148       O150   1.969   1_655  S
O149        C159   1.274       .  A
O150       Cd151   1.940       .  S
Cd151       O153   2.149       .  S
O152        C159   1.279       .  A
C154        O158   1.261       .  A
C154       C2994   1.482       .  S
C155       C3026   1.460       .  S
C157       C2981   1.502       .  S
C159       C3010   1.478       .  S
C160        O161   1.289       .  A
C160       C2962   1.474       .  S
O162        C178   1.263       .  A
O162       Zn168   1.919       .  S
C163        O179   1.271       .  A
C163        O176   1.271       .  A
C163       C2914   1.459       .  S
O164        C177   1.287       .  A
O164       Cd171   2.153       .  S
O165        C183   1.273       .  A
O165       Cd174   2.044   1_545  S
O166        C180   1.282       .  A
O166       Cd170   2.119       .  S
O167        C178   1.287       .  A
O167       Cd170   2.144       .  S
Zn168       O179   1.970       .  S
Zn168       O181   1.893   1_565  S
Zn168       O173   1.834       .  S
O169        C180   1.266       .  A
O169       Cd174   2.025       .  S
Cd170       O172   1.994       .  S
Cd170       O173   1.959       .  S
Cd171       O175   2.145       .  S
Cd171       O184   2.088       .  S
Cd171       O173   1.969   1_545  S
O172        C182   1.262   1_565  A
O173       Cd174   1.936       .  S
Cd174       O176   2.053       .  S
O175        C182   1.292       .  A
C177        O181   1.260       .  A
C177       C2882   1.474       .  S
C178       C2850   1.496       .  S
C180       C2898   1.492       .  S
C182       C2866   1.497       .  S
C183        O184   1.281       .  A
C183       C2930   1.486       .  S
O185        C201   1.274       .  A
O185       Zn191   2.002       .  S
C186        O202   1.265       .  A
C186        O199   1.290       .  A
C186       C2757   1.509       .  S
O187        C200   1.274       .  A
O187       Cd194   2.139       .  S
O188        C206   1.265       .  A
O188       Cd197   2.001       .  S
O189        C203   1.271       .  A
O189       Cd193   2.029       .  S
O190        C201   1.277       .  A
O190       Cd193   2.051       .  S
Zn191       O202   1.937       .  S
Zn191       O204   1.943       .  S
Zn191       O196   1.899       .  S
O192        C203   1.281       .  A
O192       Cd197   2.114       .  S
Cd193       O195   2.058       .  S
Cd193       O196   1.956       .  S
Cd194       O198   2.073       .  S
Cd194       O207   2.142       .  S
Cd194       O196   1.975       .  S
O195        C205   1.273       .  A
O196       Cd197   1.968       .  S
Cd197       O199   2.156       .  S
O198        C205   1.277       .  A
C200        O204   1.259       .  A
C200       C2789   1.508       .  S
C201       C2834   1.468       .  S
C203       C2802   1.511       .  S
C205       C2818   1.491       .  S
C206        O207   1.291       .  A
C206       C2770   1.478       .  S
C208        C209   1.539       .  S
C208        C214   1.531       .  S
C208        C212   1.539       .  S
C208       C2738   1.551       .  S
C209        H216   1.085   1_655  S
C209        C210   1.376       .  D
C210        C211   1.567       .  S
C210        C281   1.507       .  S
C211        C215   1.537       .  S
C211        C213   1.562       .  S
C211        H217   1.104       .  S
C212        H218   1.072       .  S
C212        C213   1.378       .  D
C213       C2805   1.536       .  S
C214        H219   1.088       .  S
C214        C215   1.347       .  D
C215       C2917   1.466       .  S
C220        C221   1.535       .  S
C220        C226   1.529       .  S
C220        C224   1.535       .  S
C220       C2722   1.548       .  S
C221        H228   1.080       .  S
C221        C222   1.367       .  D
C222        C223   1.552       .  S
C222       C2885   1.515       .  S
C223        C227   1.548       .  S
C223        C225   1.575       .  S
C223        H229   1.106       .  S
C224        H230   1.085       .  S
C224        C225   1.377       .  D
C225        C295   1.517       .  S
C226        H231   1.087       .  S
C226        C227   1.352       .  D
C227       C3013   1.483       .  S
C232        C233   1.527       .  S
C232        C238   1.546       .  S
C232        C236   1.535       .  S
C232       C2709   1.545       .  S
C233        H240   1.088       .  S
C233        C234   1.345       .  D
C234        C235   1.573       .  S
C234       C2690   1.509       .  S
C235        C239   1.536       .  S
C235        C237   1.579       .  S
C235        H241   1.104       .  S
C236        H242   1.085   1_565  S
C236        C237   1.376       .  D
C237        C301   1.517       .  S
C238        H243   1.082       .  S
C238        C239   1.370       .  D
C239       C2821   1.504       .  S
C244        C245   1.557       .  S
C244        C250   1.523       .  S
C244        C248   1.518       .  S
C244       C2674   1.543       .  S
C245        H252   1.084       .  S
C245        C246   1.386       .  D
C246        C247   1.567       .  S
C246        C296   1.508       .  S
C247        C251   1.546       .  S
C247        C249   1.558       .  S
C247        H253   1.106       .  S
C248        H254   1.087       .  S
C248        C249   1.358       .  D
C249       C2978   1.512       .  S
C250        H255   1.085       .  S
C250        C251   1.354       .  D
C251       C3221   1.478       .  S
C256        C257   1.537       .  S
C256        C262   1.538       .  S
C256        C260   1.541       .  S
C256       C2658   1.548       .  S
C257        H264   1.076       .  S
C257        C258   1.367       .  D
C258        C259   1.555       .  S
C258       C3186   1.507       .  S
C259        C263   1.543       .  S
C259        C261   1.572       .  S
C259        H265   1.109       .  S
C260        H266   1.085   1_455  S
C260        C261   1.378       .  D
C261        C300   1.518       .  S
C262        H267   1.087       .  S
C262        C263   1.350       .  D
C263       C2645   1.489       .  S
C268        C269   1.543       .  S
C268        C274   1.538       .  S
C268        C272   1.521       .  S
C268       C3541   1.547       .  S
C269        H276   1.086       .  S
C269        C270   1.378       .  D
C270        C271   1.554       .  S
C270        C298   1.489       .  S
C271        C275   1.541       .  S
C271        C273   1.556       .  S
C271        H277   1.105       .  S
C272        H278   1.086       .  S
C272        C273   1.359       .  D
C273       C2610   1.512       .  S
C274        H279   1.082       .  S
C274        C275   1.359       .  D
C275       C2626   1.469       .  S
O280        C296   1.288       .  A
O280       Zn286   2.131   1_455  S
C281        O297   1.288       .  A
C281        O294   1.277       .  A
O282        C295   1.287       .  A
O282       Cd289   2.141       .  S
O283        C301   1.276       .  A
O283       Cd292   2.096       .  S
O284        C298   1.281       .  A
O284       Cd288   2.124   1_565  S
O285        C296   1.279       .  A
O285       Cd288   2.103       .  S
Zn286       O297   2.132   1_545  S
Zn286       O299   2.091       .  S
Zn286       O291   2.013   1_655  S
O287        C298   1.277       .  A
O287       Cd292   2.088   1_455  S
Cd288       O290   2.111       .  S
Cd288       O291   2.047       .  S
Cd289       O293   2.164   1_655  S
Cd289       O302   2.172       .  S
Cd289       O291   2.042   1_655  S
O290        C300   1.278       .  A
O291       Cd292   2.039   1_445  S
Cd292       O294   2.099       .  S
O293        C300   1.289       .  A
C295        O299   1.282       .  A
C301        O302   1.291   1_565  A
O303        C319   1.264       .  A
O303       Zn309   1.920       .  S
C304        O320   1.275       .  A
C304        O317   1.274       .  A
C304       C2594   1.485       .  S
O305        C318   1.287       .  A
O305       Cd312   2.161       .  S
O306        C324   1.278       .  A
O306       Cd315   2.073       .  S
O307        C321   1.282       .  A
O307       Cd311   2.109       .  S
O308        C319   1.284       .  A
O308       Cd311   2.134       .  S
Zn309       O320   1.981       .  S
Zn309       O322   1.875       .  S
Zn309       O314   1.853       .  S
O310        C321   1.265       .  A
O310       Cd315   2.019       .  S
Cd311       O313   2.013       .  S
Cd311       O314   1.964       .  S
Cd312       O316   2.145       .  S
Cd312       O325   2.086       .  S
Cd312       O314   1.968       .  S
O313        C323   1.269       .  A
O314       Cd315   1.945       .  S
Cd315       O317   2.062       .  S
O316        C323   1.290       .  A
C318        O322   1.256       .  A
C318       C2565   1.478       .  S
C319       C2725   1.500       .  S
C321       C2546   1.490       .  S
C323       C2533   1.474       .  S
C324        O325   1.278       .  A
C324       C2578   1.494       .  S
O326        C342   1.269       .  A
O326       Zn332   1.957       .  S
C327        O343   1.271       .  A
C327        O340   1.278       .  A
C327       C2517   1.451       .  S
O328        C341   1.282       .  A
O328       Cd335   2.129       .  S
O329        C347   1.280   1_655  A
O329       Cd338   2.090       .  S
O330        C344   1.280       .  A
O330       Cd334   2.118       .  S
O331        C342   1.291       .  A
O331       Cd334   2.150       .  S
Zn332       O343   1.967       .  S
Zn332       O345   1.945   1_655  S
Zn332       O337   1.834       .  S
O333        C344   1.266       .  A
O333       Cd338   2.026       .  S
Cd334       O336   1.986       .  S
Cd334       O337   1.948       .  S
Cd335       O339   2.117       .  S
Cd335       O348   2.020       .  S
Cd335       O337   1.957   1_455  S
O336        C346   1.263   1_655  A
O337       Cd338   1.948       .  S
Cd338       O340   2.056       .  S
O339        C346   1.286       .  A
C341        O345   1.265       .  A
C341       C2501   1.487       .  S
C342       C2466   1.506       .  S
C344       C2693   1.484       .  S
C346       C2485   1.460       .  S
C347        O348   1.268       .  A
C347       C2629   1.486       .  S
C349        C350   1.517       .  S
C349        C355   1.531       .  S
C349        C353   1.556       .  S
C349       C2450   1.536       .  S
C350        H357   1.088       .  S
C350        C351   1.353       .  D
C351        C352   1.560       .  S
C351       C2498   1.515       .  S
C352        C356   1.523       .  S
C352        C354   1.558       .  S
C352        H358   1.105       .  S
C353        H359   1.084       .  S
C353        C354   1.389       .  D
C354        C439   1.498       .  S
C355        H360   1.087       .  S
C355        C356   1.358       .  D
C356       C3589   1.466       .  S
C361        C362   1.535       .  S
C361        C367   1.527       .  S
C361        C365   1.556       .  S
C361       C3154   1.554       .  S
C362        H369   1.074       .  S
C362        C363   1.368       .  D
C363        C364   1.555       .  S
C363       C3381   1.511       .  S
C364        C368   1.532       .  S
C364        C366   1.565       .  S
C364        H370   1.111       .  S
C365        H371   1.085       .  S
C365        C366   1.382       .  D
C366        C437   1.511       .  S
C367        H372   1.089       .  S
C367        C368   1.349       .  D
C368       C3029   1.475       .  S
C373        C374   1.525       .  S
C373        C379   1.537       .  S
C373        C377   1.551       .  S
C373       C2773   1.546       .  S
C374        H381   1.085       .  S
C374        C375   1.380       .  D
C375        C376   1.591       .  S
C375        C442   1.510       .  S
C376        C380   1.528       .  S
C376        C378   1.551       .  S
C376        H382   1.100       .  S
C377        H383   1.082       .  S
C377        C378   1.362       .  D
C378       C2434   1.539       .  S
C379        H384   1.087       .  S
C379        C380   1.346       .  D
C380       C2514   1.487       .  S
C385        C386   1.559       .  S
C385        C391   1.536       .  S
C385        C389   1.510       .  S
C385       C3061   1.546       .  S
C386        H393   1.082       .  S
C386        C387   1.387       .  D
C387        C388   1.560       .  S
C387        C436   1.509       .  S
C388        C392   1.531       .  S
C388        C390   1.553       .  S
C388        H394   1.109       .  S
C389        H395   1.090       .  S
C389        C390   1.343       .  D
C390       C2997   1.478       .  S
C391        H396   1.086       .  S
C391        C392   1.367       .  D
C392       C2597   1.485       .  S
C397        C398   1.534       .  S
C397        C403   1.529       .  S
C397        C401   1.552       .  S
C397       C2418   1.549       .  S
C398        H405   1.086       .  S
C398        C399   1.364       .  D
C399        C400   1.550       .  S
C399       C2562   1.502       .  S
C400        C404   1.535       .  S
C400        C402   1.569       .  S
C400        H406   1.111       .  S
C401        H407   1.078       .  S
C401        C402   1.378       .  D
C402        C422   1.507       .  S
C403        H408   1.088       .  S
C403        C404   1.352       .  D
C404       C2405   1.479       .  S
C409        C410   1.545       .  S
C409        C415   1.515       .  S
C409        C413   1.531       .  S
C409       C2386   1.550       .  S
C410        H417   1.082       .  S
C410        C411   1.382       .  D
C411        C412   1.577       .  S
C411        C441   1.515       .  S
C412        C416   1.542       .  S
C412        C414   1.562       .  S
C412        H418   1.107       .  S
C413        H419   1.078       .  S
C413        C414   1.373       .  D
C414       C3557   1.532       .  S
C415        H420   1.090       .  S
C415        C416   1.344       .  D
C416       C3397   1.467       .  S
O421        C437   1.285       .  A
O421       Zn427   2.111       .  S
C422        O438   1.285       .  A
C422        O435   1.282       .  A
O423        C436   1.284       .  A
O423       Cd430   2.134       .  S
O424        C442   1.279       .  A
O424       Cd433   2.119       .  S
O425        C439   1.283       .  A
O425       Cd429   2.116       .  S
O426        C437   1.282       .  A
O426       Cd429   2.130       .  S
Zn427       O438   2.107   1_455  S
Zn427       O440   2.065   1_455  S
Zn427       O432   1.996       .  S
O428        C439   1.281       .  A
O428       Cd433   2.124   1_455  S
Cd429       O431   2.126       .  S
Cd429       O432   2.042       .  S
Cd430       O434   2.138   1_655  S
Cd430       O443   2.129       .  S
Cd430       O432   2.039   1_655  S
O431        C441   1.280       .  A
O432       Cd433   2.055   1_455  S
Cd433       O435   2.125       .  S
O434        C441   1.286       .  A
C436        O440   1.280       .  A
C442        O443   1.285       .  A
C444        C445   1.561       .  S
C444        C450   1.537       .  S
C444        C448   1.515       .  S
C444       C2373   1.545       .  S
C445        H452   1.083       .  S
C445        C446   1.386       .  D
C446        C447   1.562       .  S
C446        C537   1.510       .  S
C447        C451   1.537       .  S
C447        C449   1.548       .  S
C447        H453   1.109       .  S
C448        H454   1.089       .  S
C448        C449   1.342       .  D
C449       C3077   1.480       .  S
C450        H455   1.085       .  S
C450        C451   1.366       .  D
C451       C3298   1.487       .  S
C456        C457   1.532       .  S
C456        C462   1.538       .  S
C456        C460   1.540       .  S
C456       C2357   1.548       .  S
C457        H464   1.079       .  S
C457        C458   1.362       .  D
C458        C459   1.560       .  S
C458       C3461   1.518       .  S
C459        C463   1.538       .  S
C459        C461   1.561       .  S
C459        H465   1.107       .  S
C460        H466   1.085       .  S
C460        C461   1.376       .  D
C461        C517   1.503       .  S
C462        H467   1.088       .  S
C462        C463   1.359       .  D
C463       C3106   1.471       .  S
C468        C469   1.540       .  S
C468        C474   1.535       .  S
C468        C472   1.529       .  S
C468       C2341   1.548       .  S
C469        H476   1.085       .  S
C469        C470   1.379       .  D
C470        C471   1.574       .  S
C470        C536   1.511       .  S
C471        C475   1.537       .  S
C471        C473   1.558       .  S
C471        H477   1.110       .  S
C472        H478   1.082       .  S
C472        C473   1.361       .  D
C473       C2309   1.510       .  S
C474        H479   1.087       .  S
C474        C475   1.354       .  D
C475       C2325   1.471       .  S
C480        C481   1.530       .  S
C480        C486   1.528       .  S
C480        C484   1.559       .  S
C480       C2290   1.554       .  S
C481        H488   1.086       .  S
C481        C482   1.364       .  D
C482        C483   1.548       .  S
C482       C2274   1.507       .  S
C483        C487   1.527       .  S
C483        C485   1.551       .  S
C483        H489   1.104       .  S
C484        H490   1.081       .  S
C484        C485   1.385       .  D
C485        C532   1.493       .  S
C486        H491   1.089       .  S
C486        C487   1.353       .  D
C487       C2258   1.468       .  S
C492        C493   1.560       .  S
C492        C498   1.523       .  S
C492        C496   1.544       .  S
C492       C2242   1.566       .  S
C493        H500   1.085       .  S
C493        C494   1.388       .  D
C494        C495   1.568       .  S
C494        C531   1.525       .  S
C495        C499   1.542       .  S
C495        C497   1.548       .  S
C495        H501   1.110       .  S
C496        H502   1.079       .  S
C496        C497   1.367       .  D
C497       C2226   1.504       .  S
C498        H503   1.088       .  S
C498        C499   1.348       .  D
C499       C3493   1.473       .  S
C504        C505   1.508       .  S
C504        C510   1.529       .  S
C504        C508   1.558       .  S
C504       C3346   1.539       .  S
C505        H512   1.089       .  S
C505        C506   1.341       .  D
C506        C507   1.568       .  S
C506       C3285   1.500       .  S
C507        C511   1.538       .  S
C507        C509   1.565       .  S
C507        H513   1.107       .  S
C508        H514   1.084       .  S
C508        C509   1.389       .  D
C509        C534   1.505       .  S
C510        H515   1.086       .  S
C510        C511   1.369       .  D
C511       C2213   1.496       .  S
O516        C532   1.282       .  A
O516       Zn522   2.074       .  S
C517        O533   1.281       .  A
C517        O530   1.283       .  A
O518        C531   1.291       .  A
O518       Cd525   2.183       .  S
O519        C537   1.277       .  A
O519       Cd528   2.083       .  S
O520        C534   1.278       .  A
O520       Cd524   2.096       .  S
O521        C532   1.278       .  A
O521       Cd524   2.106   1_556  S
Zn522       O533   2.083   1_556  S
Zn522       O535   2.071       .  S
Zn522       O527   1.987   1_556  S
O523        C534   1.283       .  A
O523       Cd528   2.149       .  S
Cd524       O526   2.090   1_554  S
Cd524       O527   2.037       .  S
Cd525       O529   2.165       .  S
Cd525       O538   2.167   1_556  S
Cd525       O527   2.055   1_556  S
O526        C536   1.276       .  A
O527       Cd528   2.036       .  S
Cd528       O530   2.128       .  S
O529        C536   1.290       .  A
C531        O535   1.280       .  A
C537        O538   1.289       .  A
O539        C555   1.265       .  A
O539       Zn545   1.953       .  S
C540        O556   1.274       .  A
C540        O553   1.278       .  A
C540       C2197   1.469       .  S
O541        C554   1.277       .  A
O541       Cd548   2.133       .  S
O542        C560   1.279       .  A
O542       Cd551   2.090       .  S
O543        C557   1.276       .  A
O543       Cd547   2.087       .  S
O544        C555   1.284       .  A
O544       Cd547   2.110       .  S
Zn545       O556   1.996       .  S
Zn545       O558   1.959       .  S
Zn545       O550   1.868       .  S
O546        C557   1.269       .  A
O546       Cd551   2.028       .  S
Cd547       O549   2.004       .  S
Cd547       O550   1.963       .  S
Cd548       O552   2.129       .  S
Cd548       O561   2.032       .  S
Cd548       O550   1.955       .  S
O549        C559   1.267       .  A
O550       Cd551   1.976       .  S
Cd551       O553   2.075       .  S
O552        C559   1.290       .  A
C554        O558   1.263       .  A
C554       C2181   1.500       .  S
C555       C2453   1.471       .  S
C557       C2277   1.490       .  S
C559       C2162   1.477       .  S
C560        O561   1.270       .  A
C560       C2322   1.484       .  S
C562        C563   1.557       .  S
C562        C568   1.530       .  S
C562        C566   1.539       .  S
C562       C2754   1.557       .  S
C563        H570   1.084       .  S
C563        C564   1.386       .  D
C564        C565   1.564       .  S
C564        C655   1.518       .  S
C565        C569   1.533       .  S
C565        C567   1.554       .  S
C565        H571   1.109       .  S
C566        H572   1.074       .  S
C566        C567   1.367       .  D
C567       C3090   1.505       .  S
C568        H573   1.089       .  S
C568        C569   1.345       .  D
C569       C2146   1.476       .  S
C574        C575   1.539       .  S
C574        C580   1.541       .  S
C574        C578   1.537       .  S
C574       C2133   1.545       .  S
C575        H582   1.082       .  S
C575        C576   1.374       .  D
C576        C577   1.578       .  S
C576        C649   1.511       .  S
C577        C581   1.527       .  S
C577        C579   1.559       .  S
C577        H583   1.106       .  S
C578        H584   1.083       .  S
C578        C579   1.359       .  D
C579       C2114   1.515       .  S
C580        H585   1.088       .  S
C580        C581   1.358       .  D
C581       C2581   1.483       .  S
C586        C587   1.554       .  S
C586        C592   1.526       .  S
C586        C590   1.520       .  S
C586       C2098   1.532       .  S
C587        H594   1.084       .  S
C587        C588   1.386       .  D
C588        C589   1.572       .  S
C588        C654   1.505       .  S
C589        C593   1.529       .  S
C589        C591   1.562       .  S
C589        H595   1.110       .  S
C590        H596   1.078       .  S
C590        C591   1.361       .  D
C591       C3570   1.512       .  S
C592        H597   1.089       .  S
C592        C593   1.343       .  D
C593       C2194   1.471       .  S
C598        C599   1.516       .  S
C598        C604   1.538       .  S
C598        C602   1.557       .  S
C598       C3333   1.544       .  S
C599        H606   1.089       .  S
C599        C600   1.342       .  D
C600        C601   1.546       .  S
C600       C2085   1.477       .  S
C601        C605   1.536       .  S
C601        C603   1.558       .  S
C601        H607   1.111       .  S
C602        H608   1.082       .  S
C602        C603   1.386       .  D
C603        C652   1.498       .  S
C604        H609   1.086       .  S
C604        C605   1.362       .  D
C605       C3605   1.480       .  S
C610        C611   1.527       .  S
C610        C616   1.532       .  S
C610        C614   1.556       .  S
C610       C3253   1.547       .  S
C611        H618   1.088       .  S
C611        C612   1.359       .  D
C612        C613   1.550       .  S
C612       C2549   1.492       .  S
C613        C617   1.535       .  S
C613        C615   1.557       .  S
C613        H619   1.111       .  S
C614        H620   1.078       .  S
C614        C615   1.381       .  D
C615        C635   1.492       .  S
C616        H621   1.088       .  S
C616        C617   1.352       .  D
C617       C3122   1.476       .  S
C622        C623   1.524       .  S
C622        C628   1.535       .  S
C622        C626   1.544       .  S
C622       C3141   1.550       .  S
C623        H630   1.083       .  S
C623        C624   1.356       .  D
C624        C625   1.557       .  S
C624       C2178   1.489       .  S
C625        C629   1.535       .  S
C625        C627   1.555       .  S
C625        H631   1.103       .  S
C626        H632   1.085       .  S
C626        C627   1.377       .  D
C627        C650   1.494       .  S
C628        H633   1.085       .  S
C628        C629   1.365       .  D
C629       C2066   1.497       .  S
O634        C650   1.282       .  A
O634       Zn640   2.086       .  S
C635        O651   1.281       .  A
C635        O648   1.280       .  A
O636        C649   1.289       .  A
O636       Cd643   2.155       .  S
O637        C655   1.280       .  A
O637       Cd646   2.110       .  S
O638        C652   1.276       .  A
O638       Cd642   2.086       .  S
O639        C650   1.275       .  A
O639       Cd642   2.097       .  S
Zn640       O651   2.074       .  S
Zn640       O653   2.053       .  S
Zn640       O645   1.996       .  S
O641        C652   1.284       .  A
O641       Cd646   2.146       .  S
Cd642       O644   2.065       .  S
Cd642       O645   2.025       .  S
Cd643       O647   2.168       .  S
Cd643       O656   2.166       .  S
Cd643       O645   2.050       .  S
O644        C654   1.274       .  A
O645       Cd646   2.035       .  S
Cd646       O648   2.106       .  S
O647        C654   1.289       .  A
C649        O653   1.276       .  A
C655        O656   1.288       .  A
O657        C673   1.274       .  A
O657       Zn663   2.004       .  S
C658        O674   1.267       .  A
C658        O671   1.283       .  A
C658       C2101   1.480       .  S
O659        C672   1.280       .  A
O659       Cd666   2.150       .  S
O660        C678   1.263       .  A
O660       Cd669   2.003       .  S
O661        C675   1.267       .  A
O661       Cd665   2.020       .  S
O662        C673   1.272       .  A
O662       Cd665   2.037       .  S
Zn663       O674   1.960       .  S
Zn663       O676   1.951       .  S
Zn663       O668   1.894       .  S
O664        C675   1.274       .  A
O664       Cd669   2.091       .  S
Cd665       O667   2.046       .  S
Cd665       O668   1.962       .  S
Cd666       O670   2.066       .  S
Cd666       O679   2.160       .  S
Cd666       O668   1.971       .  S
O667        C677   1.271       .  A
O668       Cd669   1.970       .  S
Cd669       O671   2.090       .  S
O670        C677   1.276       .  A
C672        O676   1.263       .  A
C672       C2229   1.511       .  S
C673       C2261   1.451       .  S
C675       C2034   1.501       .  S
C677       C2050   1.481       .  S
C678        O679   1.294       .  A
C678       C2018   1.507       .  S
O680        C696   1.275       .  A
O680       Zn686   1.994       .  S
C681        O697   1.270       .  A
C681        O694   1.291       .  A
C681       C1941   1.510       .  S
O682        C695   1.285       .  A
O682       Cd689   2.144       .  S
O683        C701   1.266   1_565  A
O683       Cd692   2.019       .  S
O684        C698   1.260       .  A
O684       Cd688   2.004       .  S
O685        C696   1.274       .  A
O685       Cd688   2.042       .  S
Zn686       O697   1.970       .  S
Zn686       O699   1.949   1_565  S
Zn686       O691   1.853       .  S
O687        C698   1.280       .  A
O687       Cd692   2.136       .  S
Cd688       O690   2.077       .  S
Cd688       O691   1.962       .  S
Cd689       O693   2.057       .  S
Cd689       O702   2.140       .  S
Cd689       O691   1.961   1_545  S
O690        C700   1.276   1_565  A
O691       Cd692   1.981       .  S
Cd692       O694   2.153       .  S
O693        C700   1.277       .  A
C695        O699   1.266       .  A
C695       C1954   1.480       .  S
C696       C1989   1.479       .  S
C698       C1970   1.504       .  S
C700       C2005   1.487       .  S
C701        O702   1.291       .  A
C701       C2677   1.499       .  S
O703        C719   1.265       .  A
O703       Zn709   1.943       .  S
C704        O720   1.275       .  A
C704        O717   1.274       .  A
C704       C1906   1.461       .  S
O705        C718   1.278       .  A
O705       Cd712   2.123       .  S
O706        C724   1.273       .  A
O706       Cd715   2.065   1_554  S
O707        C721   1.283       .  A
O707       Cd711   2.106       .  S
O708        C719   1.286       .  A
O708       Cd711   2.138       .  S
Zn709       O720   2.009       .  S
Zn709       O722   1.957   1_556  S
Zn709       O714   1.885       .  S
O710        C721   1.273       .  A
O710       Cd715   2.045       .  S
Cd711       O713   2.004       .  S
Cd711       O714   1.954       .  S
Cd712       O716   2.131       .  S
Cd712       O725   2.061       .  S
Cd712       O714   1.962   1_554  S
O713        C723   1.266   1_556  A
O714       Cd715   1.955       .  S
Cd715       O717   2.049       .  S
O716        C723   1.290       .  A
C718        O722   1.263       .  A
C718       C1877   1.495       .  S
C719       C2293   1.486       .  S
C721       C1890   1.478       .  S
C723       C1858   1.482       .  S
C724        O725   1.276       .  A
C724       C1925   1.486       .  S
C726        C727   1.556       .  S
C726        C732   1.526       .  S
C726        C730   1.526       .  S
C726       C1842   1.544       .  S
C727        H734   1.084   1_565  S
C727        C728   1.383       .  D
C728        C729   1.566       .  S
C728        C814   1.507       .  S
C729        C733   1.538       .  S
C729        C731   1.558       .  S
C729        H735   1.111       .  S
C730        H736   1.079       .  S
C730        C731   1.366       .  D
C731       C2037   1.506       .  S
C732        H737   1.089       .  S
C732        C733   1.346       .  D
C733       C1909   1.477       .  S
C738        C739   1.521       .  S
C738        C744   1.534       .  S
C738        C742   1.561       .  S
C738       C3445   1.546       .  S
C739        H746   1.089       .  S
C739        C740   1.348       .  D
C740        C741   1.548       .  S
C740       C1826   1.480       .  S
C741        C745   1.536       .  S
C741        C743   1.558       .  S
C741        H747   1.109       .  S
C742        H748   1.077       .  S
C742        C743   1.382       .  D
C743        C813   1.507       .  S
C744        H749   1.088       .  S
C744        C745   1.362       .  D
C745       C2053   1.484       .  S
C750        C751   1.515       .  S
C750        C756   1.519       .  S
C750        C754   1.571       .  S
C750       C1813   1.551       .  S
C751        H758   1.083       .  S
C751        C752   1.355       .  D
C752        C753   1.559       .  S
C752       C1874   1.490       .  S
C753        C757   1.529       .  S
C753        C755   1.565       .  S
C753        H759   1.107       .  S
C754        H760   1.084       .  S
C754        C755   1.398       .  D
C755        C818   1.523       .  S
C756        H761   1.089       .  S
C756        C757   1.353       .  D
C757       C1986   1.488       .  S
C762        C763   1.537       .  S
C762        C768   1.550       .  S
C762        C766   1.541       .  S
C762       C1794   1.547       .  S
C763        H770   1.085       .  S
C763        C764   1.376       .  D
C764        C765   1.563       .  S
C764        C816   1.492       .  S
C765        C769   1.514       .  S
C765        C767   1.555       .  S
C765        H771   1.110       .  S
C766        H772   1.078       .  S
C766        C767   1.354       .  D
C767       C1957   1.514       .  S
C768        H773   1.087       .  S
C768        C769   1.359       .  D
C769       C3317   1.467       .  S
C774        C775   1.556       .  S
C774        C780   1.520       .  S
C774        C778   1.535       .  S
C774       C1778   1.551       .  S
C775        H782   1.085       .  S
C775        C776   1.382       .  D
C776        C777   1.565       .  S
C776        C799   1.510       .  S
C777        C781   1.534       .  S
C777        C779   1.557       .  S
C777        H783   1.110       .  S
C778        H784   1.074       .  S
C778        C779   1.371       .  D
C779       C1762   1.512       .  S
C780        H785   1.090       .  S
C780        C781   1.343       .  D
C781       C1746   1.467       .  S
C786        C787   1.521       .  S
C786        C792   1.517       .  S
C786        C790   1.556       .  S
C786       C2869   1.537       .  S
C787        H794   1.085       .  S
C787        C788   1.358       .  D
C788        C789   1.551       .  S
C788       C3266   1.507       .  S
C789        C793   1.536       .  S
C789        C791   1.576       .  S
C789        H795   1.110       .  S
C790        H796   1.084       .  S
C790        C791   1.387       .  D
C791        C819   1.510       .  S
C792        H797   1.088       .  S
C792        C793   1.350       .  D
C793       C1730   1.466       .  S
O798        C814   1.284       .  A
O798       Zn804   2.106   1_565  S
C799        O815   1.285       .  A
C799        O812   1.279       .  A
O800        C813   1.287       .  A
O800       Cd807   2.148   1_556  S
O801        C819   1.275       .  A
O801       Cd810   2.077       .  S
O802        C816   1.281       .  A
O802       Cd806   2.125   1_545  S
O803        C814   1.280       .  A
O803       Cd806   2.114   1_556  S
Zn804       O815   2.119       .  S
Zn804       O817   2.045   1_545  S
Zn804       O809   1.998       .  S
O805        C816   1.278       .  A
O805       Cd810   2.096       .  S
Cd806       O808   2.106       .  S
Cd806       O809   2.032   1_564  S
Cd807       O811   2.180       .  S
Cd807       O820   2.174   1_565  S
Cd807       O809   2.064   1_564  S
O808        C818   1.280       .  A
O809       Cd810   2.031   1_556  S
Cd810       O812   2.115   1_554  S
O811        C818   1.288       .  A
C813        O817   1.278       .  A
C819        O820   1.291       .  A
O821        C837   1.275       .  A
O821       Zn827   2.004       .  S
C822        O838   1.270       .  A
C822        O835   1.291       .  A
C822       C2741   1.509       .  S
O823        C836   1.285       .  A
O823       Cd830   2.138       .  S
O824        C842   1.265   1_655  A
O824       Cd833   1.997       .  S
O825        C839   1.266       .  A
O825       Cd829   2.014       .  S
O826        C837   1.276       .  A
O826       Cd829   2.059       .  S
Zn827       O838   1.973       .  S
Zn827       O840   1.937   1_655  S
Zn827       O832   1.858       .  S
O828        C839   1.277       .  A
O828       Cd833   2.125       .  S
Cd829       O831   2.064       .  S
Cd829       O832   1.954       .  S
Cd830       O834   2.077       .  S
Cd830       O843   2.144       .  S
Cd830       O832   1.971   1_455  S
O831        C841   1.278   1_655  A
O832       Cd833   1.979       .  S
Cd833       O835   2.144       .  S
O834        C841   1.277       .  A
C836        O840   1.265       .  A
C836       C1669   1.481       .  S
C837       C1698   1.463       .  S
C839       C1682   1.510       .  S
C841       C1714   1.485       .  S
C842        O843   1.289       .  A
C842       C2389   1.489       .  S
O844        C860   1.272       .  A
O844       Zn850   1.986   1_556  S
C845        O861   1.265   1_556  A
C845        O858   1.287       .  A
C845       C1618   1.470       .  S
O846        C859   1.274       .  A
O846       Cd853   2.131       .  S
O847        C865   1.269       .  A
O847       Cd856   2.018   1_554  S
O848        C862   1.272       .  A
O848       Cd852   2.045       .  S
O849        C860   1.279       .  A
O849       Cd852   2.067       .  S
Zn850       O861   1.938       .  S
Zn850       O863   1.957       .  S
Zn850       O855   1.875       .  S
O851        C862   1.282       .  A
O851       Cd856   2.111       .  S
Cd852       O854   2.070   1_556  S
Cd852       O855   1.968   1_556  S
Cd853       O857   2.023       .  S
Cd853       O866   2.117       .  S
Cd853       O855   1.957       .  S
O854        C864   1.276       .  A
O855       Cd856   1.941   1_554  S
Cd856       O858   2.117       .  S
O857        C864   1.268       .  A
C859        O863   1.263       .  A
C859       C1634   1.511       .  S
C860       C1650   1.471       .  S
C862       C1765   1.503       .  S
C864       C1733   1.475       .  S
C865        O866   1.288       .  A
C865       C2370   1.478       .  S
O867        C883   1.277       .  A
O867       Zn873   2.015       .  S
C868        O884   1.273       .  A
C868        O881   1.289       .  A
C868       C1570   1.506       .  S
O869        C882   1.283       .  A
O869       Cd876   2.121       .  S
O870        C888   1.261   1_545  A
O870       Cd879   2.020       .  S
O871        C885   1.271       .  A
O871       Cd875   2.019       .  S
O872        C883   1.276       .  A
O872       Cd875   2.071       .  S
Zn873       O884   1.968       .  S
Zn873       O886   1.930   1_545  S
Zn873       O878   1.849       .  S
O874        C885   1.285       .  A
O874       Cd879   2.107       .  S
Cd875       O877   2.045       .  S
Cd875       O878   1.922       .  S
Cd876       O880   2.077       .  S
Cd876       O889   2.138       .  S
Cd876       O878   1.968   1_565  S
O877        C887   1.276   1_545  A
O878       Cd879   1.941       .  S
Cd879       O881   2.142       .  S
O880        C887   1.276       .  A
C882        O886   1.265       .  A
C882       C2613   1.468       .  S
C883       C2642   1.470       .  S
C885       C1589   1.470       .  S
C887       C1602   1.490       .  S
C888        O889   1.287       .  A
C888       C1845   1.500       .  S
C890        C891   1.551       .  S
C890        C896   1.540       .  S
C890        C894   1.518       .  S
C890       C1554   1.547       .  S
C891        H898   1.083   1_556  S
C891        C892   1.386       .  D
C892        C893   1.570       .  S
C892        C963   1.507       .  S
C893        C897   1.532       .  S
C893        C895   1.561       .  S
C893        H899   1.109       .  S
C894        H900   1.090       .  S
C894        C895   1.340       .  D
C895       C1586   1.496       .  S
C896        H901   1.085       .  S
C896        C897   1.369       .  D
C897       C1538   1.491       .  S
C902        C903   1.547       .  S
C902        C908   1.542       .  S
C902        C906   1.526       .  S
C902       C1938   1.559       .  S
C903        H910   1.085   1_565  S
C903        C904   1.380       .  D
C904        C905   1.571       .  S
C904        C980   1.520       .  S
C905        C909   1.542       .  S
C905        C907   1.563       .  S
C905        H911   1.102       .  S
C906        H912   1.078       .  S
C906        C907   1.362       .  D
C907       C1666   1.508       .  S
C908        H913   1.086       .  S
C908        C909   1.361       .  D
C909       C1922   1.503       .  S
C914        C915   1.539       .  S
C914        C920   1.532       .  S
C914        C918   1.534       .  S
C914       C2965   1.546       .  S
C915        H922   1.086       .  S
C915        C916   1.374       .  D
C916        C917   1.572       .  S
C916        C978   1.507       .  S
C917        C921   1.539       .  S
C917        C919   1.555       .  S
C917        H923   1.110       .  S
C918        H924   1.079       .  S
C918        C919   1.363       .  D
C919       C1637   1.509       .  S
C920        H925   1.087       .  S
C920        C921   1.355       .  D
C921       C2933   1.476       .  S
C926        C927   1.542       .  S
C926        C932   1.535       .  S
C926        C930   1.533       .  S
C926       C3429   1.546       .  S
C927        H934   1.079       .  S
C927        C928   1.361       .  D
C928        C929   1.556       .  S
C928       C2901   1.510       .  S
C929        C933   1.549       .  S
C929        C931   1.571       .  S
C929        H935   1.100       .  S
C930        H936   1.085   1_554  S
C930        C931   1.376       .  D
C931        C982   1.516       .  S
C932        H937   1.086       .  S
C932        C933   1.361       .  D
C933       C1701   1.504       .  S
C938        C939   1.533       .  S
C938        C944   1.539       .  S
C938        C942   1.535       .  S
C938       C2482   1.537       .  S
C939        H946   1.087       .  S
C939        C940   1.347       .  D
C940        C941   1.558       .  S
C940       C1893   1.495       .  S
C941        C945   1.531       .  S
C941        C943   1.568       .  S
C941        H947   1.110       .  S
C942        H948   1.086   1_455  S
C942        C943   1.377       .  D
C943        C983   1.505       .  S
C944        H949   1.083       .  S
C944        C945   1.363       .  D
C945       C1605   1.478       .  S
C950        C951   1.513       .  S
C950        C956   1.543       .  S
C950        C954   1.563       .  S
C950       C1522   1.550       .  S
C951        H958   1.090       .  S
C951        C952   1.339       .  D
C952        C953   1.547       .  S
C952       C1506   1.480       .  S
C953        C957   1.526       .  S
C953        C955   1.561       .  S
C953        H959   1.111       .  S
C954        H960   1.084       .  S
C954        C955   1.394       .  D
C955        C977   1.516       .  S
C956        H961   1.085       .  S
C956        C957   1.362       .  D
C957       C1653   1.472       .  S
O962        C978   1.282       .  A
O962       Zn968   2.084   1_554  S
C963        O979   1.283       .  A
C963        O976   1.282       .  A
O964        C977   1.283       .  A
O964       Cd971   2.151   1_545  S
O965        C983   1.278       .  A
O965       Cd974   2.103   1_565  S
O966        C980   1.290       .  A
O966       Cd970   2.178   1_465  S
O967        C978   1.285       .  A
O967       Cd970   2.144       .  S
Zn968       O979   2.084   1_655  S
Zn968       O981   2.064       .  S
Zn968       O973   1.992   1_656  S
O969        C980   1.283       .  A
O969       Cd974   2.130   1_564  S
Cd970       O972   2.135   1_545  S
Cd970       O973   2.056   1_655  S
Cd971       O975   2.134   1_556  S
Cd971       O984   2.132   1_655  S
Cd971       O973   2.048   1_666  S
O972        C982   1.283       .  A
O973       Cd974   2.052   1_554  S
Cd974       O976   2.138       .  S
O975        C982   1.286       .  A
C977        O981   1.279       .  A
C983        O984   1.286       .  A
O985       C1001   1.277       .  A
O985       Zn991   2.010   1_554  S
C986       O1002   1.270       .  A
C986        O999   1.283       .  A
C986       C1797   1.499       .  S
O987       C1000   1.276       .  A
O987       Cd994   2.151       .  S
O988       C1006   1.267   1_554  A
O988       Cd997   2.007       .  S
O989       C1003   1.274       .  A
O989       Cd993   2.046       .  S
O990       C1001   1.278       .  A
O990       Cd993   2.074       .  S
Zn991      O1002   1.970   1_556  S
Zn991      O1004   1.952       .  S
Zn991       O996   1.906   1_556  S
O992       C1003   1.276       .  A
O992       Cd997   2.085       .  S
Cd993       O995   2.073   1_554  S
Cd993       O996   1.973       .  S
Cd994       O998   2.051       .  S
Cd994      O1007   2.144       .  S
Cd994       O996   1.994   1_556  S
O995       C1005   1.275       .  A
O996       Cd997   1.962       .  S
Cd997       O999   2.112       .  S
O998       C1005   1.270       .  A
C1000      O1004   1.261       .  A
C1000      C2306   1.514       .  S
C1001      C2210   1.486       .  S
C1003      C1474   1.489       .  S
C1005      C1490   1.491       .  S
C1006      O1007   1.291       .  A
C1006      C1557   1.497       .  S
O1008      C1024   1.271       .  A
O1008     Zn1014   1.992       .  S
C1009      O1025   1.269       .  A
C1009      O1022   1.289       .  A
C1009      C2130   1.495       .  S
O1010      C1023   1.286       .  A
O1010     Cd1017   2.135       .  S
O1011      C1029   1.271       .  A
O1011     Cd1020   2.035       .  S
O1012      C1026   1.269       .  A
O1012     Cd1016   2.011       .  S
O1013      C1024   1.276       .  A
O1013     Cd1016   2.064       .  S
Zn1014     O1025   1.926       .  S
Zn1014     O1027   1.928       .  S
Zn1014     O1019   1.830       .  S
O1015      C1026   1.287       .  A
O1015     Cd1020   2.116       .  S
Cd1016     O1018   2.050       .  S
Cd1016     O1019   1.935       .  S
Cd1017     O1021   2.069       .  S
Cd1017     O1030   2.173       .  S
Cd1017     O1019   1.940       .  S
O1018      C1028   1.274       .  A
O1019     Cd1020   1.931       .  S
Cd1020     O1022   2.134       .  S
O1021      C1028   1.281       .  A
C1023      O1027   1.266       .  A
C1023      C2437   1.473       .  S
C1024      C2402   1.459       .  S
C1026      C1442   1.482       .  S
C1028      C1458   1.489       .  S
C1029      O1030   1.294       .  A
C1029      C2245   1.498       .  S
O1031      C1047   1.267       .  A
O1031     Zn1037   1.956       .  S
C1032      O1048   1.279       .  A
C1032      O1045   1.273       .  A
C1032      C1541   1.487       .  S
O1033      C1046   1.284       .  A
O1033     Cd1040   2.139       .  S
O1034      C1052   1.273   1_455  A
O1034     Cd1043   2.050       .  S
O1035      C1049   1.280       .  A
O1035     Cd1039   2.103       .  S
O1036      C1047   1.288       .  A
O1036     Cd1039   2.145       .  S
Zn1037     O1048   2.005       .  S
Zn1037     O1050   1.906   1_455  S
Zn1037     O1042   1.863       .  S
O1038      C1049   1.271       .  A
O1038     Cd1043   2.033       .  S
Cd1039     O1041   2.006       .  S
Cd1039     O1042   1.948       .  S
Cd1040     O1044   2.137       .  S
Cd1040     O1053   2.078       .  S
Cd1040     O1042   1.972   1_655  S
O1041      C1051   1.264   1_455  A
O1042     Cd1043   1.936       .  S
Cd1043     O1045   2.048       .  S
O1044      C1051   1.287       .  A
C1046      O1050   1.256       .  A
C1046      C1509   1.495       .  S
C1047      C2661   1.506       .  S
C1049      C1410   1.484       .  S
C1051      C2421   1.497       .  S
C1052      O1053   1.280       .  A
C1052      C1426   1.483       .  S
C1054      C1055   1.556       .  S
C1054      C1060   1.529       .  S
C1054      C1058   1.516       .  S
C1054      C1621   1.534       .  S
C1055      H1062   1.084       .  S
C1055      C1056   1.390       .  D
C1056      C1057   1.575       .  S
C1056      C1147   1.513       .  S
C1057      C1061   1.534       .  S
C1057      C1059   1.562       .  S
C1057      H1063   1.103       .  S
C1058      H1064   1.088       .  S
C1058      C1059   1.353       .  D
C1059      C1445   1.513       .  S
C1060      H1065   1.088       .  S
C1060      C1061   1.352       .  D
C1061      C1429   1.482       .  S
C1066      C1067   1.517       .  S
C1066      C1072   1.543       .  S
C1066      C1070   1.548       .  S
C1066      C2165   1.541       .  S
C1067      H1074   1.090       .  S
C1067      C1068   1.341       .  D
C1068      C1069   1.559       .  S
C1068      C1413   1.497       .  S
C1069      C1073   1.533       .  S
C1069      C1071   1.569       .  S
C1069      H1075   1.111       .  S
C1070      H1076   1.084       .  S
C1070      C1071   1.384       .  D
C1071      C1144   1.500       .  S
C1072      H1077   1.085       .  S
C1072      C1073   1.363       .  D
C1073      C1493   1.480       .  S
C1078      C1079   1.531       .  S
C1078      C1084   1.548       .  S
C1078      C1082   1.532       .  S
C1078      C2469   1.548       .  S
C1079      H1086   1.078       .  S
C1079      C1080   1.367       .  D
C1080      C1081   1.557       .  S
C1080      C3477   1.504       .  S
C1081      C1085   1.539       .  S
C1081      C1083   1.567       .  S
C1081      H1087   1.101       .  S
C1082      H1088   1.086       .  S
C1082      C1083   1.369       .  D
C1083      C1127   1.504       .  S
C1084      H1089   1.086       .  S
C1084      C1085   1.367       .  D
C1085      C1461   1.514       .  S
C1090      C1091   1.547       .  S
C1090      C1096   1.551       .  S
C1090      C1094   1.532       .  S
C1090      C2949   1.553       .  S
C1091      H1098   1.085       .  S
C1091      C1092   1.382       .  D
C1092      C1093   1.565       .  S
C1092      C1146   1.516       .  S
C1093      C1097   1.519       .  S
C1093      C1095   1.562       .  S
C1093      H1099   1.109       .  S
C1094      H1100   1.086       .  S
C1094      C1095   1.343       .  D
C1095      C1477   1.509       .  S
C1096      H1101   1.084       .  S
C1096      C1097   1.371       .  D
C1097      C3410   1.475       .  S
C1102      C1103   1.540       .  S
C1102      C1108   1.533       .  S
C1102      C1106   1.540       .  S
C1102      C3045   1.557       .  S
C1103      H1110   1.085       .  S
C1103      C1104   1.377       .  D
C1104      C1105   1.578       .  S
C1104      C1141   1.523       .  S
C1105      C1109   1.536       .  S
C1105      C1107   1.563       .  S
C1105      H1111   1.098       .  S
C1106      H1112   1.080       .  S
C1106      C1107   1.368       .  D
C1107      C1685   1.535       .  S
C1108      H1113   1.086       .  S
C1108      C1109   1.358       .  D
C1109      C3509   1.483       .  S
C1114      C1115   1.511       .  S
C1114      C1120   1.524       .  S
C1114      C1118   1.561       .  S
C1114      C1861   1.537       .  S
C1115      H1122   1.090       .  S
C1115      C1116   1.345       .  D
C1116      C1117   1.553       .  S
C1116      C3365   1.485       .  S
C1117      C1121   1.540       .  S
C1117      C1119   1.562       .  S
C1117      H1123   1.111       .  S
C1118      H1124   1.084       .  S
C1118      C1119   1.388       .  D
C1119      C1142   1.505       .  S
C1120      H1125   1.083       .  S
C1120      C1121   1.361       .  D
C1121      C1717   1.480       .  S
O1126      C1142   1.281       .  A
O1126     Zn1132   2.077   1_455  S
C1127      O1143   1.285       .  A
C1127      O1140   1.279       .  A
O1128      C1141   1.293       .  A
O1128     Cd1135   2.182       .  S
O1129      C1147   1.276       .  A
O1129     Cd1138   2.082       .  S
O1130      C1144   1.280       .  A
O1130     Cd1134   2.109   1_556  S
O1131      C1142   1.282       .  A
O1131     Cd1134   2.138       .  S
Zn1132     O1143   2.103   1_554  S
Zn1132     O1145   2.062       .  S
Zn1132     O1137   1.995   1_654  S
O1133      C1144   1.281       .  A
O1133     Cd1138   2.129   1_455  S
Cd1134     O1136   2.094       .  S
Cd1134     O1137   2.037   1_554  S
Cd1135     O1139   2.169   1_655  S
Cd1135     O1148   2.174   1_554  S
Cd1135     O1137   2.057   1_654  S
O1136      C1146   1.278       .  A
O1137     Cd1138   2.038   1_455  S
Cd1138     O1140   2.113       .  S
O1139      C1146   1.289       .  A
C1141      O1145   1.279       .  A
C1147      O1148   1.290       .  A
O1149      C1165   1.265       .  A
O1149     Zn1155   1.938       .  S
C1150      O1166   1.276       .  A
C1150      O1163   1.276       .  A
C1150      C2149   1.474       .  S
O1151      C1164   1.287       .  A
O1151     Cd1158   2.140       .  S
O1152      C1170   1.276       .  A
O1152     Cd1161   2.056       .  S
O1153      C1167   1.284       .  A
O1153     Cd1157   2.095       .  S
O1154      C1165   1.287       .  A
O1154     Cd1157   2.146       .  S
Zn1155     O1166   1.999       .  S
Zn1155     O1168   1.905       .  S
Zn1155     O1160   1.844       .  S
O1156      C1167   1.271       .  A
O1156     Cd1161   2.012       .  S
Cd1157     O1159   2.012       .  S
Cd1157     O1160   1.936       .  S
Cd1158     O1162   2.159       .  S
Cd1158     O1171   2.107       .  S
Cd1158     O1160   1.962       .  S
O1159      C1169   1.262       .  A
O1160     Cd1161   1.923       .  S
Cd1161     O1163   2.070       .  S
O1162      C1169   1.290       .  A
C1164      O1168   1.258       .  A
C1164      C2082   1.492       .  S
C1165      C2354   1.499       .  S
C1167      C1381   1.462       .  S
C1169      C1810   1.501       .  S
C1170      O1171   1.283       .  A
C1170      C1394   1.491       .  S
O1172      C1188   1.275       .  A
O1172     Zn1178   1.983       .  S
C1173      O1189   1.264       .  A
C1173      O1186   1.289       .  A
C1173      C2338   1.495       .  S
O1174      C1187   1.290       .  A
O1174     Cd1181   2.179       .  S
O1175      C1193   1.265       .  A
O1175     Cd1184   2.004       .  S
O1176      C1190   1.264       .  A
O1176     Cd1180   2.012       .  S
O1177      C1188   1.273       .  A
O1177     Cd1180   2.045       .  S
Zn1178     O1189   1.930       .  S
Zn1178     O1191   1.906       .  S
Zn1178     O1183   1.844       .  S
O1179      C1190   1.281       .  A
O1179     Cd1184   2.129       .  S
Cd1180     O1182   2.056       .  S
Cd1180     O1183   1.942       .  S
Cd1181     O1185   2.077       .  S
Cd1181     O1194   2.175       .  S
Cd1181     O1183   1.969       .  S
O1182      C1192   1.276       .  A
O1183     Cd1184   1.964       .  S
Cd1184     O1186   2.141       .  S
O1185      C1192   1.279       .  A
C1187      O1191   1.260       .  A
C1187      C2117   1.491       .  S
C1188      C2069   1.471       .  S
C1190      C1349   1.503       .  S
C1192      C1362   1.477       .  S
C1193      O1194   1.296       .  A
C1193      C1781   1.499       .  S
O1195      C1211   1.265       .  A
O1195     Zn1201   1.938       .  S
C1196      O1212   1.274       .  A
C1196      O1209   1.272       .  A
C1196      C1749   1.465       .  S
O1197      C1210   1.288       .  A
O1197     Cd1204   2.161       .  S
O1198      C1216   1.274   1_545  A
O1198     Cd1207   2.060       .  S
O1199      C1213   1.279       .  A
O1199     Cd1203   2.118       .  S
O1200      C1211   1.286       .  A
O1200     Cd1203   2.140       .  S
Zn1201     O1212   1.969       .  S
Zn1201     O1214   1.905       .  S
Zn1201     O1206   1.829       .  S
O1202      C1213   1.262       .  A
O1202     Cd1207   2.015       .  S
Cd1203     O1205   1.996       .  S
Cd1203     O1206   1.972       .  S
Cd1204     O1208   2.133       .  S
Cd1204     O1217   2.063       .  S
Cd1204     O1206   1.959   1_565  S
O1205      C1215   1.266       .  A
O1206     Cd1207   1.950       .  S
Cd1207     O1209   2.053       .  S
O1208      C1215   1.289   1_565  A
C1210      O1214   1.261   1_565  A
C1210      C1829   1.503       .  S
C1211      C1525   1.478       .  S
C1213      C1314   1.496       .  S
C1215      C2706   1.466   1_545  S
C1216      O1217   1.278       .  A
C1216      C1330   1.491       .  S
C1218      C1219   1.538       .  S
C1218      C1224   1.532       .  S
C1218      C1222   1.541       .  S
C1218      C1573   1.551       .  S
C1219      H1226   1.085       .  S
C1219      C1220   1.375       .  D
C1220      C1221   1.564       .  S
C1220      C1308   1.501       .  S
C1221      C1225   1.540       .  S
C1221      C1223   1.556       .  S
C1221      H1227   1.105       .  S
C1222      H1228   1.077       .  S
C1222      C1223   1.373       .  D
C1223      C1346   1.524       .  S
C1224      H1229   1.088       .  S
C1224      C1225   1.352       .  D
C1225      C3202   1.474       .  S
C1230      C1231   1.563       .  S
C1230      C1236   1.518       .  S
C1230      C1234   1.522       .  S
C1230      C2021   1.549       .  S
C1231      H1238   1.083       .  S
C1231      C1232   1.384       .  D
C1232      C1233   1.568       .  S
C1232      C1306   1.517       .  S
C1233      C1237   1.541       .  S
C1233      C1235   1.556       .  S
C1233      H1239   1.111       .  S
C1234      H1240   1.085       .  S
C1234      C1235   1.365       .  D
C1235      C2786   1.506       .  S
C1236      H1241   1.087       .  S
C1236      C1237   1.351       .  D
C1237      C1333   1.470       .  S
C1242      C1243   1.533       .  S
C1242      C1248   1.541       .  S
C1242      C1246   1.543       .  S
C1242      C2530   1.552       .  S
C1243      H1250   1.085       .  S
C1243      C1244   1.358       .  D
C1244      C1245   1.554       .  S
C1244      C1317   1.498       .  S
C1245      C1249   1.537       .  S
C1245      C1247   1.566       .  S
C1245      H1251   1.109       .  S
C1246      H1252   1.085       .  S
C1246      C1247   1.381       .  D
C1247      C1310   1.513       .  S
C1248      H1253   1.084       .  S
C1248      C1249   1.357       .  D
C1249      C1365   1.483       .  S
C1254      C1255   1.550       .  S
C1254      C1260   1.528       .  S
C1254      C1258   1.528       .  S
C1254      C3525   1.543       .  S
C1255      H1262   1.080       .  S
C1255      C1256   1.382       .  D
C1256      C1257   1.578       .  S
C1256      C1291   1.509       .  S
C1257      C1261   1.545       .  S
C1257      C1259   1.562       .  S
C1257      H1263   1.110       .  S
C1258      H1264   1.086       .  S
C1258      C1259   1.358       .  D
C1259      C1973   1.506       .  S
C1260      H1265   1.089       .  S
C1260      C1261   1.347       .  D
C1261      C1397   1.490       .  S
C1266      C1267   1.529       .  S
C1266      C1272   1.552       .  S
C1266      C1270   1.543       .  S
C1266      C2853   1.549       .  S
C1267      H1274   1.087       .  S
C1267      C1268   1.340       .  D
C1268      C1269   1.549       .  S
C1268      C1378   1.488       .  S
C1269      C1273   1.519       .  S
C1269      C1271   1.558       .  S
C1269      H1275   1.111       .  S
C1270      H1276   1.085   1_565  S
C1270      C1271   1.382       .  D
C1271      C1305   1.500       .  S
C1272      H1277   1.082       .  S
C1272      C1273   1.368       .  D
C1273      C2837   1.474       .  S
C1278      C1279   1.510       .  S
C1278      C1284   1.517       .  S
C1278      C1282   1.564       .  S
C1278      C3237   1.539       .  S
C1279      H1286   1.086       .  S
C1279      C1280   1.354       .  D
C1280      C1281   1.562       .  S
C1280      C3173   1.499       .  S
C1281      C1285   1.546       .  S
C1281      C1283   1.564       .  S
C1281      H1287   1.110       .  S
C1282      H1288   1.084       .  S
C1282      C1283   1.391       .  D
C1283      C1311   1.512       .  S
C1284      H1289   1.088       .  S
C1284      C1285   1.353       .  D
C1285      C2002   1.484       .  S
O1290      C1306   1.286       .  A
O1290     Zn1296   2.124       .  S
C1291      O1307   1.282       .  A
C1291      O1304   1.283       .  A
O1292      C1305   1.283   1_545  A
O1292     Cd1299   2.130       .  S
O1293      C1311   1.279       .  A
O1293     Cd1302   2.104       .  S
O1294      C1308   1.283       .  A
O1294     Cd1298   2.130       .  S
O1295      C1306   1.283       .  A
O1295     Cd1298   2.137   1_565  S
Zn1296     O1307   2.094       .  S
Zn1296     O1309   2.032       .  S
Zn1296     O1301   1.996   1_565  S
O1297      C1308   1.283       .  A
O1297     Cd1302   2.122       .  S
Cd1298     O1300   2.114       .  S
Cd1298     O1301   2.045       .  S
Cd1299     O1303   2.150       .  S
Cd1299     O1312   2.150       .  S
Cd1299     O1301   2.057       .  S
O1300      C1310   1.280       .  A
O1301     Cd1302   2.037       .  S
Cd1302     O1304   2.133   1_545  S
O1303      C1310   1.287       .  A
C1305      O1309   1.277       .  A
C1311      O1312   1.285       .  A
C1313      C1314   1.408       .  A
C1313      C1318   1.407       .  A
C1313      H1320   1.084       .  S
C1314      C1315   1.423       .  A
C1315      C1322   1.510       .  S
C1315      C1316   1.404       .  A
C1316      C1317   1.399       .  A
C1316      H1321   1.075       .  S
C1317      C1318   1.418       .  A
C1318      C1319   1.507       .  S
C1319      H1323   1.111       .  S
C1319      H1324   1.110       .  S
C1319      H1325   1.109       .  S
C1322      H1326   1.110       .  S
C1322      H1327   1.109       .  S
C1322      H1328   1.111       .  S
C1329      C1330   1.405       .  A
C1329      C1334   1.393       .  A
C1329      H1336   1.084       .  S
C1330      C1331   1.422       .  A
C1331      C1338   1.502   1_565  S
C1331      C1332   1.405       .  A
C1332      C1333   1.398       .  A
C1332      H1337   1.085       .  S
C1333      C1334   1.415       .  A
C1334      C1335   1.506       .  S
C1335      H1339   1.102       .  S
C1335      H1340   1.109       .  S
C1335      H1341   1.111       .  S
C1338      H1342   1.101       .  S
C1338      H1343   1.110       .  S
C1338      H1344   1.111       .  S
C1345      C1346   1.415       .  A
C1345      C1350   1.408       .  A
C1345      H1352   1.083       .  S
C1346      C1347   1.421       .  A
C1347      C1354   1.509       .  S
C1347      C1348   1.409       .  A
C1348      C1349   1.411       .  A
C1348      H1353   1.083       .  S
C1349      C1350   1.416       .  A
C1350      C1351   1.506       .  S
C1351      H1355   1.111       .  S
C1351      H1356   1.110       .  S
C1351      H1357   1.110       .  S
C1354      H1358   1.095       .  S
C1354      H1359   1.107       .  S
C1354      H1360   1.111       .  S
C1361      C1362   1.409       .  A
C1361      C1366   1.408       .  A
C1361      H1368   1.083       .  S
C1362      C1363   1.414       .  A
C1363      C1370   1.510       .  S
C1363      C1364   1.395       .  A
C1364      C1365   1.405       .  A
C1364      H1369   1.085       .  S
C1365      C1366   1.407       .  A
C1366      C1367   1.505       .  S
C1367      H1371   1.108       .  S
C1367      H1372   1.109       .  S
C1367      H1373   1.110       .  S
C1370      H1374   1.110       .  S
C1370      H1375   1.111       .  S
C1370      H1376   1.111       .  S
C1377      C1378   1.400       .  A
C1377      C1382   1.405       .  A
C1377      H1384   1.085       .  S
C1378      C1379   1.433       .  A
C1379      C1386   1.505       .  S
C1379      C1380   1.398       .  A
C1380      C1381   1.387       .  A
C1380      H1385   1.085       .  S
C1381      C1382   1.416       .  A
C1382      C1383   1.507       .  S
C1383      H1387   1.111       .  S
C1383      H1388   1.106       .  S
C1383      H1389   1.110       .  S
C1386      H1390   1.091       .  S
C1386      H1391   1.111       .  S
C1386      H1392   1.110       .  S
C1393      C1394   1.414       .  A
C1393      C1398   1.409       .  A
C1393      H1400   1.084       .  S
C1394      C1395   1.412       .  A
C1395      C1402   1.507       .  S
C1395      C1396   1.403       .  A
C1396      C1397   1.409       .  A
C1396      H1401   1.084       .  S
C1397      C1398   1.406       .  A
C1398      C1399   1.506       .  S
C1399      H1403   1.111       .  S
C1399      H1404   1.110       .  S
C1399      H1405   1.110       .  S
C1402      H1406   1.110       .  S
C1402      H1407   1.110       .  S
C1402      H1408   1.111       .  S
C1409      C1410   1.393       .  A
C1409      C1414   1.402       .  A
C1409      H1416   1.085       .  S
C1410      C1411   1.419       .  A
C1411      C1418   1.507       .  S
C1411      C1412   1.413       .  A
C1412      C1413   1.404       .  A
C1412      H1417   1.084       .  S
C1413      C1414   1.431       .  A
C1414      C1415   1.507       .  S
C1415      H1419   1.106       .  S
C1415      H1420   1.098       .  S
C1415      H1421   1.111       .  S
C1418      H1422   1.105       .  S
C1418      H1423   1.110       .  S
C1418      H1424   1.111       .  S
C1425      C1426   1.403       .  A
C1425      C1430   1.399       .  A
C1425      H1432   1.084       .  S
C1426      C1427   1.418       .  A
C1427      C1434   1.508   1_655  S
C1427      C1428   1.404       .  A
C1428      C1429   1.403       .  A
C1428      H1433   1.084       .  S
C1429      C1430   1.411       .  A
C1430      C1431   1.499       .  S
C1431      H1435   1.111       .  S
C1431      H1436   1.109       .  S
C1431      H1437   1.104       .  S
C1434      H1438   1.110       .  S
C1434      H1439   1.110   1_455  S
C1434      H1440   1.111       .  S
C1441      C1442   1.416       .  A
C1441      C1446   1.410       .  A
C1441      H1448   1.084       .  S
C1442      C1443   1.399       .  A
C1443      C1450   1.509       .  S
C1443      C1444   1.397       .  A
C1444      C1445   1.422       .  A
C1444      H1449   1.073       .  S
C1445      C1446   1.410       .  A
C1446      C1447   1.505       .  S
C1447      H1451   1.106       .  S
C1447      H1452   1.110       .  S
C1447      H1453   1.107       .  S
C1450      H1454   1.110       .  S
C1450      H1455   1.109       .  S
C1450      H1456   1.111       .  S
C1457      C1458   1.399       .  A
C1457      C1462   1.400       .  A
C1457      H1464   1.085       .  S
C1458      C1459   1.415       .  A
C1459      C1466   1.508       .  S
C1459      C1460   1.406       .  A
C1460      C1461   1.414       .  A
C1460      H1465   1.084       .  S
C1461      C1462   1.430       .  A
C1462      C1463   1.505       .  S
C1463      H1467   1.111       .  S
C1463      H1468   1.110       .  S
C1463      H1469   1.083       .  S
C1466      H1470   1.111       .  S
C1466      H1471   1.110       .  S
C1466      H1472   1.111       .  S
C1473      C1474   1.392       .  A
C1473      C1478   1.405       .  A
C1473      H1480   1.085       .  S
C1474      C1475   1.418       .  A
C1475      C1482   1.506       .  S
C1475      C1476   1.412       .  A
C1476      C1477   1.406       .  A
C1476      H1481   1.084       .  S
C1477      C1478   1.435       .  A
C1478      C1479   1.503       .  S
C1479      H1483   1.111       .  S
C1479      H1484   1.090       .  S
C1479      H1485   1.107       .  S
C1482      H1486   1.110       .  S
C1482      H1487   1.106       .  S
C1482      H1488   1.109       .  S
C1489      C1490   1.408       .  A
C1489      C1494   1.401       .  A
C1489      H1496   1.083   1_556  S
C1490      C1491   1.426       .  A
C1491      C1498   1.510       .  S
C1491      C1492   1.404       .  A
C1492      C1493   1.397       .  A
C1492      H1497   1.084       .  S
C1493      C1494   1.409       .  A
C1494      C1495   1.507       .  S
C1495      H1499   1.111   1_556  S
C1495      H1500   1.110   1_556  S
C1495      H1501   1.108       .  S
C1498      H1502   1.106       .  S
C1498      H1503   1.109       .  S
C1498      H1504   1.111       .  S
C1505      C1506   1.392       .  A
C1505      C1510   1.401       .  A
C1505      H1512   1.085       .  S
C1506      C1507   1.424       .  A
C1507      C1514   1.507       .  S
C1507      C1508   1.406       .  A
C1508      C1509   1.401       .  A
C1508      H1513   1.084       .  S
C1509      C1510   1.434       .  A
C1510      C1511   1.514       .  S
C1511      H1515   1.111       .  S
C1511      H1516   1.105   1_655  S
C1511      H1517   1.110       .  S
C1514      H1518   1.108       .  S
C1514      H1519   1.105       .  S
C1514      H1520   1.111       .  S
C1521      C1522   1.423       .  A
C1521      C1526   1.397       .  A
C1521      H1528   1.076       .  S
C1522      C1523   1.427       .  A
C1523      C1530   1.505       .  S
C1523      C1524   1.418       .  A
C1524      C1525   1.405       .  A
C1524      H1529   1.083       .  S
C1525      C1526   1.402       .  A
C1526      C1527   1.513       .  S
C1527      H1531   1.111       .  S
C1527      H1532   1.109       .  S
C1527      H1533   1.110       .  S
C1530      H1534   1.109       .  S
C1530      H1535   1.110       .  S
C1530      H1536   1.111       .  S
C1537      C1538   1.401       .  A
C1537      C1542   1.401       .  A
C1537      H1544   1.085       .  S
C1538      C1539   1.410       .  A
C1539      C1546   1.503       .  S
C1539      C1540   1.404       .  A
C1540      C1541   1.405       .  A
C1540      H1545   1.083       .  S
C1541      C1542   1.425       .  A
C1542      C1543   1.509       .  S
C1543      H1547   1.111   1_455  S
C1543      H1548   1.110   1_455  S
C1543      H1549   1.109       .  S
C1546      H1550   1.110       .  S
C1546      H1551   1.097       .  S
C1546      H1552   1.111       .  S
C1553      C1554   1.428       .  A
C1553      C1558   1.404       .  A
C1553      H1560   1.078       .  S
C1554      C1555   1.418       .  A
C1555      C1562   1.505   1_556  S
C1555      C1556   1.410       .  A
C1556      C1557   1.415       .  A
C1556      H1561   1.084   1_556  S
C1557      C1558   1.404       .  A
C1558      C1559   1.508       .  S
C1559      H1563   1.111       .  S
C1559      H1564   1.110       .  S
C1559      H1565   1.108       .  S
C1562      H1566   1.109       .  S
C1562      H1567   1.109       .  S
C1562      H1568   1.111       .  S
C1569      C1570   1.416       .  A
C1569      C1574   1.406       .  A
C1569      H1576   1.083       .  S
C1570      C1571   1.417       .  A
C1571      C1578   1.506       .  S
C1571      C1572   1.412       .  A
C1572      C1573   1.414       .  A
C1572      H1577   1.080       .  S
C1573      C1574   1.415       .  A
C1574      C1575   1.510   1_545  S
C1575      H1579   1.111       .  S
C1575      H1580   1.110       .  S
C1575      H1581   1.107   1_565  S
C1578      H1582   1.110       .  S
C1578      H1583   1.109       .  S
C1578      H1584   1.111       .  S
C1585      C1586   1.399       .  A
C1585      C1590   1.408       .  A
C1585      H1592   1.084       .  S
C1586      C1587   1.433       .  A
C1587      C1594   1.506       .  S
C1587      C1588   1.401       .  A
C1588      C1589   1.390       .  A
C1588      H1593   1.085       .  S
C1589      C1590   1.417       .  A
C1590      C1591   1.506       .  S
C1591      H1595   1.111       .  S
C1591      H1596   1.110       .  S
C1591      H1597   1.108       .  S
C1594      H1598   1.110       .  S
C1594      H1599   1.094       .  S
C1594      H1600   1.109       .  S
C1601      C1602   1.409       .  A
C1601      C1606   1.394       .  A
C1601      H1608   1.084   1_565  S
C1602      C1603   1.423       .  A
C1603      C1610   1.508       .  S
C1603      C1604   1.407       .  A
C1604      C1605   1.400       .  A
C1604      H1609   1.083       .  S
C1605      C1606   1.408       .  A
C1606      C1607   1.508       .  S
C1607      H1611   1.110   1_565  S
C1607      H1612   1.110       .  S
C1607      H1613   1.110       .  S
C1610      H1614   1.108       .  S
C1610      H1615   1.110       .  S
C1610      H1616   1.111       .  S
C1617      C1618   1.382       .  A
C1617      C1622   1.394       .  A
C1617      H1624   1.086       .  S
C1618      C1619   1.420       .  A
C1619      C1626   1.508   1_556  S
C1619      C1620   1.410       .  A
C1620      C1621   1.402       .  A
C1620      H1625   1.081   1_556  S
C1621      C1622   1.446       .  A
C1622      C1623   1.516       .  S
C1623      H1627   1.111       .  S
C1623      H1628   1.111       .  S
C1623      H1629   1.097       .  S
C1626      H1630   1.109       .  S
C1626      H1631   1.111       .  S
C1626      H1632   1.111       .  S
C1633      C1634   1.411       .  A
C1633      C1638   1.400       .  A
C1633      H1640   1.084       .  S
C1634      C1635   1.423       .  A
C1635      C1642   1.505       .  S
C1635      C1636   1.420       .  A
C1636      C1637   1.408       .  A
C1636      H1641   1.082       .  S
C1637      C1638   1.416       .  A
C1638      C1639   1.510       .  S
C1639      H1643   1.105       .  S
C1639      H1644   1.109       .  S
C1639      H1645   1.111       .  S
C1642      H1646   1.110       .  S
C1642      H1647   1.110       .  S
C1642      H1648   1.111       .  S
C1649      C1650   1.402       .  A
C1649      C1654   1.394       .  A
C1649      H1656   1.085   1_556  S
C1650      C1651   1.418       .  A
C1651      C1658   1.510       .  S
C1651      C1652   1.402       .  A
C1652      C1653   1.398       .  A
C1652      H1657   1.083       .  S
C1653      C1654   1.409       .  A
C1654      C1655   1.506       .  S
C1655      H1659   1.110   1_556  S
C1655      H1660   1.110       .  S
C1655      H1661   1.110       .  S
C1658      H1662   1.110       .  S
C1658      H1663   1.107       .  S
C1658      H1664   1.110       .  S
C1665      C1666   1.420       .  A
C1665      C1670   1.406       .  A
C1665      H1672   1.084       .  S
C1666      C1667   1.407       .  A
C1667      C1674   1.502       .  S
C1667      C1668   1.407       .  A
C1668      C1669   1.412       .  A
C1668      H1673   1.084       .  S
C1669      C1670   1.403       .  A
C1670      C1671   1.505       .  S
C1671      H1675   1.111       .  S
C1671      H1676   1.110       .  S
C1671      H1677   1.110       .  S
C1674      H1678   1.107       .  S
C1674      H1679   1.107       .  S
C1674      H1680   1.110       .  S
C1681      C1682   1.408       .  A
C1681      C1686   1.409       .  A
C1681      H1688   1.084       .  S
C1682      C1683   1.419       .  A
C1683      C1690   1.507       .  S
C1683      C1684   1.415       .  A
C1684      C1685   1.417       .  A
C1684      H1689   1.084       .  S
C1685      C1686   1.425       .  A
C1686      C1687   1.503       .  S
C1687      H1691   1.107       .  S
C1687      H1692   1.105       .  S
C1687      H1693   1.094       .  S
C1690      H1694   1.110       .  S
C1690      H1695   1.110       .  S
C1690      H1696   1.111       .  S
C1697      C1698   1.401       .  A
C1697      C1702   1.408       .  A
C1697      H1704   1.084       .  S
C1698      C1699   1.401       .  A
C1699      C1706   1.508       .  S
C1699      C1700   1.395       .  A
C1700      C1701   1.416       .  A
C1700      H1705   1.083       .  S
C1701      C1702   1.417       .  A
C1702      C1703   1.503       .  S
C1703      H1707   1.108       .  S
C1703      H1708   1.106       .  S
C1703      H1709   1.110       .  S
C1706      H1710   1.111       .  S
C1706      H1711   1.110       .  S
C1706      H1712   1.111       .  S
C1713      C1714   1.405       .  A
C1713      C1718   1.398       .  A
C1713      H1720   1.082   1_455  S
C1714      C1715   1.420       .  A
C1715      C1722   1.507       .  S
C1715      C1716   1.405       .  A
C1716      C1717   1.398       .  A
C1716      H1721   1.080       .  S
C1717      C1718   1.410       .  A
C1718      C1719   1.509       .  S
C1719      H1723   1.111   1_455  S
C1719      H1724   1.111       .  S
C1719      H1725   1.107       .  S
C1722      H1726   1.109       .  S
C1722      H1727   1.109       .  S
C1722      H1728   1.111       .  S
C1729      C1730   1.400       .  A
C1729      C1734   1.392       .  A
C1729      H1736   1.080       .  S
C1730      C1731   1.408       .  A
C1731      C1738   1.506       .  S
C1731      C1732   1.403       .  A
C1732      C1733   1.408       .  A
C1732      H1737   1.084       .  S
C1733      C1734   1.416       .  A
C1734      C1735   1.512       .  S
C1735      H1739   1.111       .  S
C1735      H1740   1.108       .  S
C1735      H1741   1.111       .  S
C1738      H1742   1.110       .  S
C1738      H1743   1.110       .  S
C1738      H1744   1.107   1_554  S
C1745      C1746   1.401       .  A
C1745      C1750   1.405       .  A
C1745      H1752   1.084       .  S
C1746      C1747   1.420       .  A
C1747      C1754   1.508       .  S
C1747      C1748   1.387       .  A
C1748      C1749   1.395       .  A
C1748      H1753   1.086       .  S
C1749      C1750   1.416       .  A
C1750      C1751   1.507       .  S
C1751      H1755   1.111       .  S
C1751      H1756   1.106       .  S
C1751      H1757   1.110       .  S
C1754      H1758   1.100       .  S
C1754      H1759   1.109       .  S
C1754      H1760   1.110       .  S
C1761      C1762   1.408       .  A
C1761      C1766   1.413       .  A
C1761      H1768   1.081       .  S
C1762      C1763   1.417       .  A
C1763      C1770   1.507       .  S
C1763      C1764   1.406       .  A
C1764      C1765   1.409       .  A
C1764      H1769   1.084       .  S
C1765      C1766   1.421       .  A
C1766      C1767   1.507       .  S
C1767      H1771   1.111       .  S
C1767      H1772   1.109       .  S
C1767      H1773   1.110       .  S
C1770      H1774   1.110       .  S
C1770      H1775   1.110       .  S
C1770      H1776   1.111   1_556  S
C1777      C1778   1.407       .  A
C1777      C1782   1.407       .  A
C1777      H1784   1.081       .  S
C1778      C1779   1.445       .  A
C1779      C1786   1.509       .  S
C1779      C1780   1.411       .  A
C1780      C1781   1.392       .  A
C1780      H1785   1.084       .  S
C1781      C1782   1.425       .  A
C1782      C1783   1.510       .  S
C1783      H1787   1.111       .  S
C1783      H1788   1.109       .  S
C1783      H1789   1.109       .  S
C1786      H1790   1.105       .  S
C1786      H1791   1.109       .  S
C1786      H1792   1.111       .  S
C1793      C1794   1.413       .  A
C1793      C1798   1.407       .  A
C1793      H1800   1.078       .  S
C1794      C1795   1.417       .  A
C1795      C1802   1.512   1_554  S
C1795      C1796   1.407       .  A
C1796      C1797   1.414       .  A
C1796      H1801   1.083       .  S
C1797      C1798   1.416       .  A
C1798      C1799   1.509       .  S
C1799      H1803   1.111       .  S
C1799      H1804   1.111       .  S
C1799      H1805   1.110       .  S
C1802      H1806   1.110       .  S
C1802      H1807   1.105   1_556  S
C1802      H1808   1.111       .  S
C1809      C1810   1.389       .  A
C1809      C1814   1.404       .  A
C1809      H1816   1.084       .  S
C1810      C1811   1.432       .  A
C1811      C1818   1.509       .  S
C1811      C1812   1.414       .  A
C1812      C1813   1.400       .  A
C1812      H1817   1.082       .  S
C1813      C1814   1.448       .  A
C1814      C1815   1.517       .  S
C1815      H1819   1.111       .  S
C1815      H1820   1.106       .  S
C1815      H1821   1.104       .  S
C1818      H1822   1.108       .  S
C1818      H1823   1.109       .  S
C1818      H1824   1.111       .  S
C1825      C1826   1.410       .  A
C1825      C1830   1.410       .  A
C1825      H1832   1.084       .  S
C1826      C1827   1.398       .  A
C1827      C1834   1.508       .  S
C1827      C1828   1.399       .  A
C1828      C1829   1.422       .  A
C1828      H1833   1.083   1_565  S
C1829      C1830   1.414       .  A
C1830      C1831   1.505       .  S
C1831      H1835   1.111       .  S
C1831      H1836   1.110       .  S
C1831      H1837   1.110       .  S
C1834      H1838   1.110       .  S
C1834      H1839   1.111   1_565  S
C1834      H1840   1.111   1_565  S
C1841      C1842   1.400       .  A
C1841      C1846   1.410   1_565  A
C1841      H1848   1.080   1_565  S
C1842      C1843   1.442       .  A
C1843      C1850   1.518       .  S
C1843      C1844   1.404       .  A
C1844      C1845   1.393       .  A
C1844      H1849   1.084       .  S
C1845      C1846   1.431   1_565  A
C1846      C1847   1.511       .  S
C1847      H1851   1.111       .  S
C1847      H1852   1.110       .  S
C1847      H1853   1.110       .  S
C1850      H1854   1.106       .  S
C1850      H1855   1.107       .  S
C1850      H1856   1.111       .  S
C1857      C1858   1.389       .  A
C1857      C1862   1.402       .  A
C1857      H1864   1.085       .  S
C1858      C1859   1.424       .  A
C1859      C1866   1.511   1_554  S
C1859      C1860   1.407       .  A
C1860      C1861   1.402       .  A
C1860      H1865   1.081       .  S
C1861      C1862   1.444       .  A
C1862      C1863   1.519       .  S
C1863      H1867   1.106       .  S
C1863      H1868   1.111       .  S
C1863      H1869   1.106       .  S
C1866      H1870   1.111       .  S
C1866      H1871   1.108       .  S
C1866      H1872   1.111       .  S
C1873      C1874   1.411       .  A
C1873      C1878   1.409       .  A
C1873      H1880   1.081       .  S
C1874      C1875   1.408       .  A
C1875      C1882   1.510       .  S
C1875      C1876   1.402       .  A
C1876      C1877   1.413       .  A
C1876      H1881   1.082       .  S
C1877      C1878   1.412       .  A
C1878      C1879   1.505       .  S
C1879      H1883   1.111       .  S
C1879      H1884   1.110       .  S
C1879      H1885   1.110       .  S
C1882      H1886   1.109       .  S
C1882      H1887   1.108   1_554  S
C1882      H1888   1.111   1_554  S
C1889      C1890   1.393       .  A
C1889      C1894   1.404       .  A
C1889      H1896   1.085       .  S
C1890      C1891   1.416       .  A
C1891      C1898   1.504       .  S
C1891      C1892   1.408       .  A
C1892      C1893   1.401       .  A
C1892      H1897   1.084       .  S
C1893      C1894   1.431       .  A
C1894      C1895   1.506       .  S
C1895      H1899   1.108       .  S
C1895      H1900   1.097       .  S
C1895      H1901   1.110       .  S
C1898      H1902   1.106       .  S
C1898      H1903   1.110       .  S
C1898      H1904   1.111       .  S
C1905      C1906   1.401       .  A
C1905      C1910   1.399       .  A
C1905      H1912   1.085       .  S
C1906      C1907   1.405       .  A
C1907      C1914   1.507       .  S
C1907      C1908   1.398       .  A
C1908      C1909   1.408       .  A
C1908      H1913   1.083       .  S
C1909      C1910   1.412       .  A
C1910      C1911   1.503       .  S
C1911      H1915   1.110       .  S
C1911      H1916   1.110       .  S
C1911      H1917   1.101       .  S
C1914      H1918   1.110       .  S
C1914      H1919   1.110       .  S
C1914      H1920   1.110       .  S
C1921      C1922   1.410       .  A
C1921      C1926   1.404       .  A
C1921      H1928   1.084       .  S
C1922      C1923   1.417       .  A
C1923      C1930   1.499       .  S
C1923      C1924   1.401       .  A
C1924      C1925   1.402       .  A
C1924      H1929   1.083       .  S
C1925      C1926   1.415       .  A
C1926      C1927   1.508       .  S
C1927      H1931   1.111       .  S
C1927      H1932   1.110       .  S
C1927      H1933   1.111       .  S
C1930      H1934   1.107       .  S
C1930      H1935   1.095       .  S
C1930      H1936   1.111       .  S
C1937      C1938   1.405       .  A
C1937      C1942   1.409       .  A
C1937      H1944   1.084       .  S
C1938      C1939   1.424       .  A
C1939      C1946   1.506       .  S
C1939      C1940   1.412       .  A
C1940      C1941   1.407       .  A
C1940      H1945   1.084       .  S
C1941      C1942   1.432       .  A
C1942      C1943   1.511       .  S
C1943      H1947   1.111   1_565  S
C1943      H1948   1.110       .  S
C1943      H1949   1.110   1_565  S
C1946      H1950   1.111       .  S
C1946      H1951   1.110       .  S
C1946      H1952   1.111       .  S
C1953      C1954   1.392       .  A
C1953      C1958   1.407       .  A
C1953      H1960   1.084       .  S
C1954      C1955   1.417       .  A
C1955      C1962   1.498       .  S
C1955      C1956   1.404       .  A
C1956      C1957   1.397       .  A
C1956      H1961   1.083       .  S
C1957      C1958   1.438       .  A
C1958      C1959   1.509       .  S
C1959      H1963   1.111       .  S
C1959      H1964   1.110       .  S
C1959      H1965   1.105       .  S
C1962      H1966   1.100       .  S
C1962      H1967   1.109       .  S
C1962      H1968   1.110       .  S
C1969      C1970   1.407       .  A
C1969      C1974   1.408       .  A
C1969      H1976   1.084       .  S
C1970      C1971   1.426       .  A
C1971      C1978   1.509       .  S
C1971      C1972   1.410       .  A
C1972      C1973   1.399       .  A
C1972      H1977   1.079       .  S
C1973      C1974   1.420       .  A
C1974      C1975   1.507       .  S
C1975      H1979   1.108   1_565  S
C1975      H1980   1.110       .  S
C1975      H1981   1.110       .  S
C1978      H1982   1.110       .  S
C1978      H1983   1.110       .  S
C1978      H1984   1.111       .  S
C1985      C1986   1.406       .  A
C1985      C1990   1.392       .  A
C1985      H1992   1.085       .  S
C1986      C1987   1.407       .  A
C1987      C1994   1.506       .  S
C1987      C1988   1.405       .  A
C1988      C1989   1.411       .  A
C1988      H1993   1.084       .  S
C1989      C1990   1.417       .  A
C1990      C1991   1.512       .  S
C1991      H1995   1.111       .  S
C1991      H1996   1.110       .  S
C1991      H1997   1.109       .  S
C1994      H1998   1.100       .  S
C1994      H1999   1.110       .  S
C1994      H2000   1.111       .  S
C2001      C2002   1.408       .  A
C2001      C2006   1.408       .  A
C2001      H2008   1.085       .  S
C2002      C2003   1.410       .  A
C2003      C2010   1.497       .  S
C2003      C2004   1.395       .  A
C2004      C2005   1.403       .  A
C2004      H2009   1.084       .  S
C2005      C2006   1.417       .  A
C2006      C2007   1.506       .  S
C2007      H2011   1.111       .  S
C2007      H2012   1.110       .  S
C2007      H2013   1.105   1_545  S
C2010      H2014   1.111       .  S
C2010      H2015   1.109       .  S
C2010      H2016   1.107       .  S
C2017      C2018   1.395       .  A
C2017      C2022   1.408       .  A
C2017      H2024   1.084       .  S
C2018      C2019   1.435       .  A
C2019      C2026   1.513       .  S
C2019      C2020   1.408       .  A
C2020      C2021   1.399       .  A
C2020      H2025   1.078       .  S
C2021      C2022   1.442       .  A
C2022      C2023   1.517       .  S
C2023      H2027   1.111       .  S
C2023      H2028   1.105       .  S
C2023      H2029   1.103       .  S
C2026      H2030   1.110       .  S
C2026      H2031   1.110       .  S
C2026      H2032   1.111       .  S
C2033      C2034   1.409       .  A
C2033      C2038   1.405       .  A
C2033      H2040   1.084       .  S
C2034      C2035   1.422       .  A
C2035      C2042   1.509       .  S
C2035      C2036   1.409       .  A
C2036      C2037   1.402       .  A
C2036      H2041   1.079       .  S
C2037      C2038   1.417       .  A
C2038      C2039   1.507       .  S
C2039      H2043   1.110       .  S
C2039      H2044   1.110       .  S
C2039      H2045   1.110       .  S
C2042      H2046   1.109       .  S
C2042      H2047   1.110       .  S
C2042      H2048   1.111       .  S
C2049      C2050   1.404       .  A
C2049      C2054   1.399       .  A
C2049      H2056   1.085       .  S
C2050      C2051   1.417       .  A
C2051      C2058   1.508       .  S
C2051      C2052   1.401       .  A
C2052      C2053   1.405       .  A
C2052      H2057   1.085       .  S
C2053      C2054   1.413       .  A
C2054      C2055   1.503       .  S
C2055      H2059   1.110       .  S
C2055      H2060   1.110       .  S
C2055      H2061   1.099       .  S
C2058      H2062   1.110       .  S
C2058      H2063   1.107       .  S
C2058      H2064   1.111       .  S
C2065      C2066   1.409       .  A
C2065      C2070   1.395       .  A
C2065      H2072   1.084       .  S
C2066      C2067   1.417       .  A
C2067      C2074   1.507       .  S
C2067      C2068   1.403       .  A
C2068      C2069   1.405       .  A
C2068      H2073   1.084       .  S
C2069      C2070   1.411       .  A
C2070      C2071   1.509       .  S
C2071      H2075   1.111       .  S
C2071      H2076   1.111       .  S
C2071      H2077   1.110       .  S
C2074      H2078   1.102       .  S
C2074      H2079   1.110       .  S
C2074      H2080   1.111       .  S
C2081      C2082   1.401       .  A
C2081      C2086   1.404       .  A
C2081      H2088   1.084       .  S
C2082      C2083   1.434       .  A
C2083      C2090   1.513       .  S
C2083      C2084   1.400       .  A
C2084      C2085   1.391       .  A
C2084      H2089   1.085       .  S
C2085      C2086   1.422       .  A
C2086      C2087   1.510       .  S
C2087      H2091   1.111       .  S
C2087      H2092   1.100       .  S
C2087      H2093   1.108       .  S
C2090      H2094   1.106       .  S
C2090      H2095   1.111       .  S
C2090      H2096   1.111       .  S
C2097      C2098   1.401       .  A
C2097      C2102   1.407       .  A
C2097      H2104   1.081       .  S
C2098      C2099   1.445       .  A
C2099      C2106   1.521       .  S
C2099      C2100   1.396       .  A
C2100      C2101   1.387       .  A
C2100      H2105   1.085       .  S
C2101      C2102   1.423       .  A
C2102      C2103   1.509       .  S
C2103      H2107   1.111       .  S
C2103      H2108   1.109       .  S
C2103      H2109   1.110       .  S
C2106      H2110   1.111       .  S
C2106      H2111   1.107       .  S
C2106      H2112   1.107       .  S
C2113      C2114   1.424       .  A
C2113      C2118   1.411       .  A
C2113      H2120   1.083       .  S
C2114      C2115   1.407       .  A
C2115      C2122   1.504       .  S
C2115      C2116   1.408       .  A
C2116      C2117   1.415       .  A
C2116      H2121   1.084       .  S
C2117      C2118   1.403       .  A
C2118      C2119   1.504       .  S
C2119      H2123   1.111       .  S
C2119      H2124   1.110       .  S
C2119      H2125   1.110       .  S
C2122      H2126   1.107       .  S
C2122      H2127   1.110       .  S
C2122      H2128   1.108       .  S
C2129      C2130   1.411       .  A
C2129      C2134   1.403       .  A
C2129      H2136   1.083       .  S
C2130      C2131   1.406       .  A
C2131      C2138   1.509       .  S
C2131      C2132   1.404       .  A
C2132      C2133   1.425       .  A
C2132      H2137   1.074       .  S
C2133      C2134   1.420       .  A
C2134      C2135   1.509       .  S
C2135      H2139   1.111       .  S
C2135      H2140   1.108       .  S
C2135      H2141   1.109       .  S
C2138      H2142   1.111       .  S
C2138      H2143   1.110       .  S
C2138      H2144   1.111       .  S
C2145      C2146   1.406       .  A
C2145      C2150   1.399       .  A
C2145      H2152   1.084       .  S
C2146      C2147   1.405       .  A
C2147      C2154   1.506       .  S
C2147      C2148   1.403       .  A
C2148      C2149   1.409       .  A
C2148      H2153   1.084       .  S
C2149      C2150   1.410       .  A
C2150      C2151   1.507       .  S
C2151      H2155   1.111       .  S
C2151      H2156   1.110       .  S
C2151      H2157   1.110       .  S
C2154      H2158   1.111       .  S
C2154      H2159   1.110       .  S
C2154      H2160   1.111       .  S
C2161      C2162   1.408       .  A
C2161      C2166   1.409       .  A
C2161      H2168   1.085       .  S
C2162      C2163   1.405       .  A
C2163      C2170   1.511       .  S
C2163      C2164   1.399       .  A
C2164      C2165   1.425       .  A
C2164      H2169   1.079       .  S
C2165      C2166   1.421       .  A
C2166      C2167   1.506       .  S
C2167      H2171   1.109       .  S
C2167      H2172   1.109       .  S
C2167      H2173   1.111       .  S
C2170      H2174   1.111       .  S
C2170      H2175   1.103       .  S
C2170      H2176   1.111       .  S
C2177      C2178   1.412       .  A
C2177      C2182   1.414       .  A
C2177      H2184   1.081       .  S
C2178      C2179   1.408       .  A
C2179      C2186   1.511       .  S
C2179      C2180   1.399       .  A
C2180      C2181   1.411       .  A
C2180      H2185   1.080       .  S
C2181      C2182   1.414       .  A
C2182      C2183   1.505       .  S
C2183      H2187   1.111       .  S
C2183      H2188   1.110       .  S
C2183      H2189   1.110       .  S
C2186      H2190   1.109       .  S
C2186      H2191   1.109       .  S
C2186      H2192   1.111       .  S
C2193      C2194   1.400       .  A
C2193      C2198   1.395       .  A
C2193      H2200   1.082       .  S
C2194      C2195   1.411       .  A
C2195      C2202   1.506       .  S
C2195      C2196   1.405       .  A
C2196      C2197   1.403       .  A
C2196      H2201   1.084       .  S
C2197      C2198   1.413       .  A
C2198      C2199   1.509       .  S
C2199      H2203   1.111       .  S
C2199      H2204   1.110       .  S
C2199      H2205   1.109       .  S
C2202      H2206   1.110       .  S
C2202      H2207   1.110       .  S
C2202      H2208   1.111       .  S
C2209      C2210   1.408       .  A
C2209      C2214   1.403       .  A
C2209      H2216   1.081       .  S
C2210      C2211   1.418       .  A
C2211      C2218   1.508       .  S
C2211      C2212   1.401       .  A
C2212      C2213   1.405       .  A
C2212      H2217   1.084       .  S
C2213      C2214   1.410       .  A
C2214      C2215   1.506       .  S
C2215      H2219   1.104       .  S
C2215      H2220   1.110       .  S
C2215      H2221   1.111       .  S
C2218      H2222   1.109       .  S
C2218      H2223   1.109   1_554  S
C2218      H2224   1.111       .  S
C2225      C2226   1.407       .  A
C2225      C2230   1.419       .  A
C2225      H2232   1.083       .  S
C2226      C2227   1.411       .  A
C2227      C2234   1.510       .  S
C2227      C2228   1.403       .  A
C2228      C2229   1.414       .  A
C2228      H2233   1.083       .  S
C2229      C2230   1.421       .  A
C2230      C2231   1.504       .  S
C2231      H2235   1.111       .  S
C2231      H2236   1.111       .  S
C2231      H2237   1.110       .  S
C2234      H2238   1.111       .  S
C2234      H2239   1.107       .  S
C2234      H2240   1.111       .  S
C2241      C2242   1.421       .  A
C2241      C2246   1.415       .  A
C2241      H2248   1.077       .  S
C2242      C2243   1.427       .  A
C2243      C2250   1.508       .  S
C2243      C2244   1.410       .  A
C2244      C2245   1.407       .  A
C2244      H2249   1.085       .  S
C2245      C2246   1.410       .  A
C2246      C2247   1.507       .  S
C2247      H2251   1.111       .  S
C2247      H2252   1.111       .  S
C2247      H2253   1.110       .  S
C2250      H2254   1.111       .  S
C2250      H2255   1.103       .  S
C2250      H2256   1.110       .  S
C2257      C2258   1.404       .  A
C2257      C2262   1.389       .  A
C2257      H2264   1.085       .  S
C2258      C2259   1.409       .  A
C2259      C2266   1.505       .  S
C2259      C2260   1.403       .  A
C2260      C2261   1.402       .  A
C2260      H2265   1.083       .  S
C2261      C2262   1.404       .  A
C2262      C2263   1.508       .  S
C2263      H2267   1.111       .  S
C2263      H2268   1.110       .  S
C2263      H2269   1.111       .  S
C2266      H2270   1.109       .  S
C2266      H2271   1.110       .  S
C2266      H2272   1.111       .  S
C2273      C2274   1.409       .  A
C2273      C2278   1.405       .  A
C2273      H2280   1.085       .  S
C2274      C2275   1.422       .  A
C2275      C2282   1.505       .  S
C2275      C2276   1.405       .  A
C2276      C2277   1.404       .  A
C2276      H2281   1.085       .  S
C2277      C2278   1.419       .  A
C2278      C2279   1.509       .  S
C2279      H2283   1.111       .  S
C2279      H2284   1.109       .  S
C2279      H2285   1.109       .  S
C2282      H2286   1.095       .  S
C2282      H2287   1.106       .  S
C2282      H2288   1.111       .  S
C2289      C2290   1.430       .  A
C2289      C2294   1.402       .  A
C2289      H2296   1.082       .  S
C2290      C2291   1.416       .  A
C2291      C2298   1.502   1_556  S
C2291      C2292   1.413       .  A
C2292      C2293   1.413       .  A
C2292      H2297   1.084   1_556  S
C2293      C2294   1.398       .  A
C2294      C2295   1.507       .  S
C2295      H2299   1.111       .  S
C2295      H2300   1.110       .  S
C2295      H2301   1.110       .  S
C2298      H2302   1.109       .  S
C2298      H2303   1.109       .  S
C2298      H2304   1.111       .  S
C2305      C2306   1.411       .  A
C2305      C2310   1.401       .  A
C2305      H2312   1.084       .  S
C2306      C2307   1.423       .  A
C2307      C2314   1.505       .  S
C2307      C2308   1.422       .  A
C2308      C2309   1.408       .  A
C2308      H2313   1.082       .  S
C2309      C2310   1.417       .  A
C2310      C2311   1.511       .  S
C2311      H2315   1.109       .  S
C2311      H2316   1.109       .  S
C2311      H2317   1.108       .  S
C2314      H2318   1.110       .  S
C2314      H2319   1.110       .  S
C2314      H2320   1.111       .  S
C2321      C2322   1.408       .  A
C2321      C2326   1.406       .  A
C2321      H2328   1.083       .  S
C2322      C2323   1.420       .  A
C2323      C2330   1.511       .  S
C2323      C2324   1.396       .  A
C2324      C2325   1.399       .  A
C2324      H2329   1.083       .  S
C2325      C2326   1.407       .  A
C2326      C2327   1.506       .  S
C2327      H2331   1.108       .  S
C2327      H2332   1.110       .  S
C2327      H2333   1.111       .  S
C2330      H2334   1.111       .  S
C2330      H2335   1.109       .  S
C2330      H2336   1.111       .  S
C2337      C2338   1.405       .  A
C2337      C2342   1.407       .  A
C2337      H2344   1.084       .  S
C2338      C2339   1.428       .  A
C2339      C2346   1.511       .  S
C2339      C2340   1.404       .  A
C2340      C2341   1.404       .  A
C2340      H2345   1.084       .  S
C2341      C2342   1.420       .  A
C2342      C2343   1.506       .  S
C2343      H2347   1.110       .  S
C2343      H2348   1.110       .  S
C2343      H2349   1.110       .  S
C2346      H2350   1.110       .  S
C2346      H2351   1.110       .  S
C2346      H2352   1.111       .  S
C2353      C2354   1.403       .  A
C2353      C2358   1.409       .  A
C2353      H2360   1.084       .  S
C2354      C2355   1.433       .  A
C2355      C2362   1.511       .  S
C2355      C2356   1.406       .  A
C2356      C2357   1.401       .  A
C2356      H2361   1.084       .  S
C2357      C2358   1.422       .  A
C2358      C2359   1.505       .  S
C2359      H2363   1.110       .  S
C2359      H2364   1.111       .  S
C2359      H2365   1.111       .  S
C2362      H2366   1.111       .  S
C2362      H2367   1.109       .  S
C2362      H2368   1.111       .  S
C2369      C2370   1.406       .  A
C2369      C2374   1.410       .  A
C2369      H2376   1.084       .  S
C2370      C2371   1.402       .  A
C2371      C2378   1.509       .  S
C2371      C2372   1.400       .  A
C2372      C2373   1.425       .  A
C2372      H2377   1.078       .  S
C2373      C2374   1.423       .  A
C2374      C2375   1.506       .  S
C2375      H2379   1.108   1_554  S
C2375      H2380   1.111       .  S
C2375      H2381   1.110       .  S
C2378      H2382   1.110       .  S
C2378      H2383   1.110       .  S
C2378      H2384   1.111       .  S
C2385      C2386   1.429       .  A
C2385      C2390   1.403       .  A
C2385      H2392   1.076       .  S
C2386      C2387   1.421       .  A
C2387      C2394   1.507   1_455  S
C2387      C2388   1.408       .  A
C2388      C2389   1.410       .  A
C2388      H2393   1.084   1_455  S
C2389      C2390   1.402       .  A
C2390      C2391   1.508       .  S
C2391      H2395   1.111       .  S
C2391      H2396   1.111       .  S
C2391      H2397   1.110       .  S
C2394      H2398   1.109   1_655  S
C2394      H2399   1.111       .  S
C2394      H2400   1.109       .  S
C2401      C2402   1.390       .  A
C2401      C2406   1.393       .  A
C2401      H2408   1.085       .  S
C2402      C2403   1.409       .  A
C2403      C2410   1.499       .  S
C2403      C2404   1.402       .  A
C2404      C2405   1.398       .  A
C2404      H2409   1.084       .  S
C2405      C2406   1.424       .  A
C2406      C2407   1.507       .  S
C2407      H2411   1.111       .  S
C2407      H2412   1.110       .  S
C2407      H2413   1.103       .  S
C2410      H2414   1.103       .  S
C2410      H2415   1.110       .  S
C2410      H2416   1.111       .  S
C2417      C2418   1.424       .  A
C2417      C2422   1.400       .  A
C2417      H2424   1.080       .  S
C2418      C2419   1.414       .  A
C2419      C2426   1.502   1_655  S
C2419      C2420   1.409   1_655  A
C2420      C2421   1.419   1_455  A
C2420      H2425   1.083       .  S
C2421      C2422   1.404       .  A
C2422      C2423   1.508       .  S
C2423      H2427   1.111       .  S
C2423      H2428   1.110       .  S
C2423      H2429   1.110       .  S
C2426      H2430   1.109       .  S
C2426      H2431   1.109       .  S
C2426      H2432   1.111       .  S
C2433      C2434   1.427       .  A
C2433      C2438   1.401       .  A
C2433      H2440   1.078       .  S
C2434      C2435   1.426       .  A
C2435      C2442   1.507       .  S
C2435      C2436   1.415       .  A
C2436      C2437   1.406       .  A
C2436      H2441   1.085       .  S
C2437      C2438   1.398       .  A
C2438      C2439   1.508       .  S
C2439      H2443   1.111       .  S
C2439      H2444   1.110       .  S
C2439      H2445   1.110       .  S
C2442      H2446   1.102       .  S
C2442      H2447   1.109       .  S
C2442      H2448   1.111       .  S
C2449      C2450   1.405       .  A
C2449      C2454   1.412       .  A
C2449      H2456   1.081       .  S
C2450      C2451   1.444       .  A
C2451      C2458   1.516       .  S
C2451      C2452   1.395       .  A
C2452      C2453   1.383       .  A
C2452      H2457   1.086       .  S
C2453      C2454   1.418       .  A
C2454      C2455   1.507       .  S
C2455      H2459   1.111       .  S
C2455      H2460   1.111       .  S
C2455      H2461   1.109       .  S
C2458      H2462   1.098       .  S
C2458      H2463   1.111       .  S
C2458      H2464   1.111       .  S
C2465      C2466   1.406       .  A
C2465      C2470   1.410       .  A
C2465      H2472   1.084       .  S
C2466      C2467   1.434       .  A
C2467      C2474   1.511   1_655  S
C2467      C2468   1.406       .  A
C2468      C2469   1.402       .  A
C2468      H2473   1.084       .  S
C2469      C2470   1.421       .  A
C2470      C2471   1.504       .  S
C2471      H2475   1.111       .  S
C2471      H2476   1.110       .  S
C2471      H2477   1.111       .  S
C2474      H2478   1.110       .  S
C2474      H2479   1.110   1_455  S
C2474      H2480   1.111       .  S
C2481      C2482   1.411       .  A
C2481      C2486   1.401       .  A
C2481      H2488   1.084       .  S
C2482      C2483   1.418       .  A
C2483      C2490   1.508       .  S
C2483      C2484   1.402       .  A
C2484      C2485   1.403       .  A
C2484      H2489   1.085       .  S
C2485      C2486   1.409       .  A
C2486      C2487   1.508       .  S
C2487      H2491   1.111       .  S
C2487      H2492   1.110       .  S
C2487      H2493   1.110   1_455  S
C2490      H2494   1.110       .  S
C2490      H2495   1.110       .  S
C2490      H2496   1.110   1_455  S
C2497      C2498   1.422       .  A
C2497      C2502   1.405       .  A
C2497      H2504   1.077       .  S
C2498      C2499   1.410       .  A
C2499      C2506   1.503       .  S
C2499      C2500   1.409       .  A
C2500      C2501   1.412       .  A
C2500      H2505   1.084       .  S
C2501      C2502   1.400       .  A
C2502      C2503   1.506       .  S
C2503      H2507   1.111       .  S
C2503      H2508   1.110       .  S
C2503      H2509   1.110       .  S
C2506      H2510   1.110       .  S
C2506      H2511   1.108       .  S
C2506      H2512   1.109   1_455  S
C2513      C2514   1.401       .  A
C2513      C2518   1.398       .  A
C2513      H2520   1.083       .  S
C2514      C2515   1.432       .  A
C2515      C2522   1.512       .  S
C2515      C2516   1.391       .  A
C2516      C2517   1.388       .  A
C2516      H2521   1.085       .  S
C2517      C2518   1.408       .  A
C2518      C2519   1.505       .  S
C2519      H2523   1.111       .  S
C2519      H2524   1.110       .  S
C2519      H2525   1.100       .  S
C2522      H2526   1.101       .  S
C2522      H2527   1.110       .  S
C2522      H2528   1.111       .  S
C2529      C2530   1.413       .  A
C2529      C2534   1.405       .  A
C2529      H2536   1.082       .  S
C2530      C2531   1.423       .  A
C2531      C2538   1.507       .  S
C2531      C2532   1.407       .  A
C2532      C2533   1.402       .  A
C2532      H2537   1.083       .  S
C2533      C2534   1.410       .  A
C2534      C2535   1.509       .  S
C2535      H2539   1.111       .  S
C2535      H2540   1.110       .  S
C2535      H2541   1.111       .  S
C2538      H2542   1.109       .  S
C2538      H2543   1.110       .  S
C2538      H2544   1.111       .  S
C2545      C2546   1.406       .  A
C2545      C2550   1.402       .  A
C2545      H2552   1.084       .  S
C2546      C2547   1.421       .  A
C2547      C2554   1.509       .  S
C2547      C2548   1.407       .  A
C2548      C2549   1.400       .  A
C2548      H2553   1.079       .  S
C2549      C2550   1.416       .  A
C2550      C2551   1.506       .  S
C2551      H2555   1.111       .  S
C2551      H2556   1.110       .  S
C2551      H2557   1.110       .  S
C2554      H2558   1.110       .  S
C2554      H2559   1.109       .  S
C2554      H2560   1.111       .  S
C2561      C2562   1.409       .  A
C2561      C2566   1.411       .  A
C2561      H2568   1.078       .  S
C2562      C2563   1.415       .  A
C2563      C2570   1.509       .  S
C2563      C2564   1.401       .  A
C2564      C2565   1.409       .  A
C2564      H2569   1.085       .  S
C2565      C2566   1.412       .  A
C2566      C2567   1.506       .  S
C2567      H2571   1.111       .  S
C2567      H2572   1.110       .  S
C2567      H2573   1.110       .  S
C2570      H2574   1.109       .  S
C2570      H2575   1.111       .  S
C2570      H2576   1.110       .  S
C2577      C2578   1.412       .  A
C2577      C2582   1.408       .  A
C2577      H2584   1.084       .  S
C2578      C2579   1.421       .  A
C2579      C2586   1.509       .  S
C2579      C2580   1.402       .  A
C2580      C2581   1.401       .  A
C2580      H2585   1.084       .  S
C2581      C2582   1.408       .  A
C2582      C2583   1.506       .  S
C2583      H2587   1.111       .  S
C2583      H2588   1.110       .  S
C2583      H2589   1.110       .  S
C2586      H2590   1.110       .  S
C2586      H2591   1.110       .  S
C2586      H2592   1.111       .  S
C2593      C2594   1.410       .  A
C2593      C2598   1.402       .  A
C2593      H2600   1.084       .  S
C2594      C2595   1.422       .  A
C2595      C2602   1.507       .  S
C2595      C2596   1.401       .  A
C2596      C2597   1.402       .  A
C2596      H2601   1.085       .  S
C2597      C2598   1.404       .  A
C2598      C2599   1.505       .  S
C2599      H2603   1.111       .  S
C2599      H2604   1.110       .  S
C2599      H2605   1.100       .  S
C2602      H2606   1.109       .  S
C2602      H2607   1.110       .  S
C2602      H2608   1.111       .  S
C2609      C2610   1.415       .  A
C2609      C2614   1.396       .  A
C2609      H2616   1.083       .  S
C2610      C2611   1.421       .  A
C2611      C2618   1.506       .  S
C2611      C2612   1.414       .  A
C2612      C2613   1.406       .  A
C2612      H2617   1.085       .  S
C2613      C2614   1.404       .  A
C2614      C2615   1.510       .  S
C2615      H2619   1.111       .  S
C2615      H2620   1.110       .  S
C2615      H2621   1.110       .  S
C2618      H2622   1.097       .  S
C2618      H2623   1.109       .  S
C2618      H2624   1.111       .  S
C2625      C2626   1.395       .  A
C2625      C2630   1.392       .  A
C2625      H2632   1.084       .  S
C2626      C2627   1.407       .  A
C2627      C2634   1.505       .  S
C2627      C2628   1.405       .  A
C2628      C2629   1.409       .  A
C2628      H2633   1.084   1_455  S
C2629      C2630   1.425       .  A
C2630      C2631   1.512       .  S
C2631      H2635   1.111       .  S
C2631      H2636   1.110       .  S
C2631      H2637   1.111       .  S
C2634      H2638   1.110       .  S
C2634      H2639   1.110       .  S
C2634      H2640   1.109   1_455  S
C2641      C2642   1.393       .  A
C2641      C2646   1.400       .  A
C2641      H2648   1.085       .  S
C2642      C2643   1.413       .  A
C2643      C2650   1.502       .  S
C2643      C2644   1.404       .  A
C2644      C2645   1.399       .  A
C2644      H2649   1.084       .  S
C2645      C2646   1.429       .  A
C2646      C2647   1.512       .  S
C2647      H2651   1.110       .  S
C2647      H2652   1.110       .  S
C2647      H2653   1.106       .  S
C2650      H2654   1.109       .  S
C2650      H2655   1.110       .  S
C2650      H2656   1.110       .  S
C2657      C2658   1.400       .  A
C2657      C2662   1.408       .  A
C2657      H2664   1.084   1_455  S
C2658      C2659   1.420       .  A
C2659      C2666   1.505       .  S
C2659      C2660   1.410       .  A
C2660      C2661   1.406       .  A
C2660      H2665   1.084       .  S
C2661      C2662   1.436       .  A
C2662      C2663   1.511   1_455  S
C2663      H2667   1.111       .  S
C2663      H2668   1.110       .  S
C2663      H2669   1.110   1_655  S
C2666      H2670   1.111       .  S
C2666      H2671   1.111       .  S
C2666      H2672   1.111       .  S
C2673      C2674   1.400       .  A
C2673      C2678   1.410       .  A
C2673      H2680   1.081       .  S
C2674      C2675   1.443       .  A
C2675      C2682   1.521       .  S
C2675      C2676   1.403       .  A
C2676      C2677   1.393       .  A
C2676      H2681   1.084       .  S
C2677      C2678   1.430       .  A
C2678      C2679   1.510   1_545  S
C2679      H2683   1.111       .  S
C2679      H2684   1.109       .  S
C2679      H2685   1.111       .  S
C2682      H2686   1.105       .  S
C2682      H2687   1.111       .  S
C2682      H2688   1.105       .  S
C2689      C2690   1.408       .  A
C2689      C2694   1.415       .  A
C2689      H2696   1.084       .  S
C2690      C2691   1.435       .  A
C2691      C2698   1.509       .  S
C2691      C2692   1.404       .  A
C2692      C2693   1.393       .  A
C2692      H2697   1.085       .  S
C2693      C2694   1.417       .  A
C2694      C2695   1.507       .  S
C2695      H2699   1.111       .  S
C2695      H2700   1.105       .  S
C2695      H2701   1.110       .  S
C2698      H2702   1.107       .  S
C2698      H2703   1.097       .  S
C2698      H2704   1.111       .  S
C2705      C2706   1.404       .  A
C2705      C2710   1.404       .  A
C2705      H2712   1.085   1_565  S
C2706      C2707   1.408       .  A
C2707      C2714   1.507   1_565  S
C2707      C2708   1.403       .  A
C2708      C2709   1.414       .  A
C2708      H2713   1.084       .  S
C2709      C2710   1.418       .  A
C2710      C2711   1.507   1_565  S
C2711      H2715   1.110       .  S
C2711      H2716   1.111   1_545  S
C2711      H2717   1.110       .  S
C2714      H2718   1.110   1_545  S
C2714      H2719   1.110       .  S
C2714      H2720   1.111       .  S
C2721      C2722   1.415       .  A
C2721      C2726   1.410       .  A
C2721      H2728   1.081       .  S
C2722      C2723   1.414       .  A
C2723      C2730   1.508       .  S
C2723      C2724   1.399       .  A
C2724      C2725   1.416       .  A
C2724      H2729   1.084       .  S
C2725      C2726   1.415       .  A
C2726      C2727   1.506       .  S
C2727      H2731   1.111       .  S
C2727      H2732   1.110       .  S
C2727      H2733   1.108       .  S
C2730      H2734   1.111       .  S
C2730      H2735   1.106       .  S
C2730      H2736   1.110       .  S
C2737      C2738   1.404       .  A
C2737      C2742   1.410       .  A
C2737      H2744   1.084   1_655  S
C2738      C2739   1.419       .  A
C2739      C2746   1.505       .  S
C2739      C2740   1.409       .  A
C2740      C2741   1.407       .  A
C2740      H2745   1.084       .  S
C2741      C2742   1.434       .  A
C2742      C2743   1.510   1_655  S
C2743      H2747   1.111       .  S
C2743      H2748   1.110   1_455  S
C2743      H2749   1.110       .  S
C2746      H2750   1.111       .  S
C2746      H2751   1.111       .  S
C2746      H2752   1.110       .  S
C2753      C2754   1.424       .  A
C2753      C2758   1.414       .  A
C2753      H2760   1.074       .  S
C2754      C2755   1.417       .  A
C2755      C2762   1.508       .  S
C2755      C2756   1.407       .  A
C2756      C2757   1.416       .  A
C2756      H2761   1.083       .  S
C2757      C2758   1.412       .  A
C2758      C2759   1.508       .  S
C2759      H2763   1.111       .  S
C2759      H2764   1.111       .  S
C2759      H2765   1.110       .  S
C2762      H2766   1.110       .  S
C2762      H2767   1.108       .  S
C2762      H2768   1.111       .  S
C2769      C2770   1.409       .  A
C2769      C2774   1.409       .  A
C2769      H2776   1.085       .  S
C2770      C2771   1.402       .  A
C2771      C2778   1.509       .  S
C2771      C2772   1.401       .  A
C2772      C2773   1.423       .  A
C2772      H2777   1.075       .  S
C2773      C2774   1.421       .  A
C2774      C2775   1.507       .  S
C2775      H2779   1.109       .  S
C2775      H2780   1.111       .  S
C2775      H2781   1.110       .  S
C2778      H2782   1.111       .  S
C2778      H2783   1.110       .  S
C2778      H2784   1.111       .  S
C2785      C2786   1.407       .  A
C2785      C2790   1.419       .  A
C2785      H2792   1.083       .  S
C2786      C2787   1.414       .  A
C2787      C2794   1.508       .  S
C2787      C2788   1.399       .  A
C2788      C2789   1.411       .  A
C2788      H2793   1.084       .  S
C2789      C2790   1.422       .  A
C2790      C2791   1.505       .  S
C2791      H2795   1.111       .  S
C2791      H2796   1.110       .  S
C2791      H2797   1.110       .  S
C2794      H2798   1.111       .  S
C2794      H2799   1.110       .  S
C2794      H2800   1.110       .  S
C2801      C2802   1.410       .  A
C2801      C2806   1.417       .  A
C2801      H2808   1.083       .  S
C2802      C2803   1.419       .  A
C2803      C2810   1.508       .  S
C2803      C2804   1.408       .  A
C2804      C2805   1.413       .  A
C2804      H2809   1.083       .  S
C2805      C2806   1.425       .  A
C2806      C2807   1.505       .  S
C2807      H2811   1.111       .  S
C2807      H2812   1.098       .  S
C2807      H2813   1.110       .  S
C2810      H2814   1.110       .  S
C2810      H2815   1.109       .  S
C2810      H2816   1.111       .  S
C2817      C2818   1.407       .  A
C2817      C2822   1.407       .  A
C2817      H2824   1.084       .  S
C2818      C2819   1.419       .  A
C2819      C2826   1.509       .  S
C2819      C2820   1.400       .  A
C2820      C2821   1.406       .  A
C2820      H2825   1.084       .  S
C2821      C2822   1.419       .  A
C2822      C2823   1.504       .  S
C2823      H2827   1.108       .  S
C2823      H2828   1.111       .  S
C2823      H2829   1.102       .  S
C2826      H2830   1.110       .  S
C2826      H2831   1.110       .  S
C2826      H2832   1.111       .  S
C2833      C2834   1.403       .  A
C2833      C2838   1.395       .  A
C2833      H2840   1.084       .  S
C2834      C2835   1.413       .  A
C2835      C2842   1.507       .  S
C2835      C2836   1.401       .  A
C2836      C2837   1.402       .  A
C2836      H2841   1.083       .  S
C2837      C2838   1.407       .  A
C2838      C2839   1.508       .  S
C2839      H2843   1.111       .  S
C2839      H2844   1.111       .  S
C2839      H2845   1.107       .  S
C2842      H2846   1.109       .  S
C2842      H2847   1.110       .  S
C2842      H2848   1.111       .  S
C2849      C2850   1.414       .  A
C2849      C2854   1.401       .  A
C2849      H2856   1.084       .  S
C2850      C2851   1.415       .  A
C2851      C2858   1.506       .  S
C2851      C2852   1.411       .  A
C2852      C2853   1.416       .  A
C2852      H2857   1.084       .  S
C2853      C2854   1.410       .  A
C2854      C2855   1.506   1_565  S
C2855      H2859   1.110       .  S
C2855      H2860   1.110   1_545  S
C2855      H2861   1.111       .  S
C2858      H2862   1.110       .  S
C2858      H2863   1.110       .  S
C2858      H2864   1.111       .  S
C2865      C2866   1.392       .  A
C2865      C2870   1.400       .  A
C2865      H2872   1.084       .  S
C2866      C2867   1.434       .  A
C2867      C2874   1.512   1_545  S
C2867      C2868   1.407       .  A
C2868      C2869   1.396       .  A
C2868      H2873   1.080       .  S
C2869      C2870   1.444       .  A
C2870      C2871   1.523       .  S
C2871      H2875   1.111       .  S
C2871      H2876   1.104       .  S
C2871      H2877   1.103       .  S
C2874      H2878   1.110       .  S
C2874      H2879   1.110       .  S
C2874      H2880   1.111       .  S
C2881      C2882   1.400       .  A
C2881      C2886   1.413       .  A
C2881      H2888   1.085       .  S
C2882      C2883   1.412       .  A
C2883      C2890   1.512       .  S
C2883      C2884   1.397       .  A
C2884      C2885   1.410       .  A
C2884      H2889   1.085       .  S
C2885      C2886   1.431       .  A
C2886      C2887   1.503       .  S
C2887      H2891   1.111       .  S
C2887      H2892   1.090       .  S
C2887      H2893   1.109       .  S
C2890      H2894   1.108       .  S
C2890      H2895   1.110       .  S
C2890      H2896   1.111       .  S
C2897      C2898   1.409       .  A
C2897      C2902   1.414       .  A
C2897      H2904   1.084       .  S
C2898      C2899   1.416       .  A
C2899      C2906   1.511       .  S
C2899      C2900   1.400       .  A
C2900      C2901   1.401       .  A
C2900      H2905   1.069       .  S
C2901      C2902   1.421       .  A
C2902      C2903   1.510       .  S
C2903      H2907   1.111       .  S
C2903      H2908   1.106       .  S
C2903      H2909   1.110       .  S
C2906      H2910   1.110       .  S
C2906      H2911   1.108       .  S
C2906      H2912   1.111       .  S
C2913      C2914   1.393       .  A
C2913      C2918   1.390       .  A
C2913      H2920   1.085       .  S
C2914      C2915   1.414       .  A
C2915      C2922   1.505   1_565  S
C2915      C2916   1.400       .  A
C2916      C2917   1.397       .  A
C2916      H2921   1.084       .  S
C2917      C2918   1.422       .  A
C2918      C2919   1.510       .  S
C2919      H2923   1.110       .  S
C2919      H2924   1.100       .  S
C2919      H2925   1.110       .  S
C2922      H2926   1.107       .  S
C2922      H2927   1.109       .  S
C2922      H2928   1.111       .  S
C2929      C2930   1.401       .  A
C2929      C2934   1.396       .  A
C2929      H2936   1.085       .  S
C2930      C2931   1.422       .  A
C2931      C2938   1.503       .  S
C2931      C2932   1.404       .  A
C2932      C2933   1.395       .  A
C2932      H2937   1.085       .  S
C2933      C2934   1.420       .  A
C2934      C2935   1.510       .  S
C2935      H2939   1.110       .  S
C2935      H2940   1.105       .  S
C2935      H2941   1.110       .  S
C2938      H2942   1.105   1_545  S
C2938      H2943   1.109   1_545  S
C2938      H2944   1.111   1_545  S
C2945      C2946   1.418       .  A
C2945      C2950   1.403       .  A
C2945      H2952   1.084       .  S
C2946      C2947   1.415       .  A
C2947      C2954   1.507       .  S
C2947      C2948   1.411       .  A
C2948      C2949   1.418       .  A
C2948      H2953   1.083       .  S
C2949      C2950   1.411       .  A
C2950      C2951   1.508       .  S
C2951      H2955   1.110   1_455  S
C2951      H2956   1.109       .  S
C2951      H2957   1.110       .  S
C2954      H2958   1.108       .  S
C2954      H2959   1.110       .  S
C2954      H2960   1.111       .  S
C2961      C2962   1.406       .  A
C2961      C2966   1.402       .  A
C2961      H2968   1.085       .  S
C2962      C2963   1.406       .  A
C2963      C2970   1.508       .  S
C2963      C2964   1.405       .  A
C2964      C2965   1.417       .  A
C2964      H2969   1.080       .  S
C2965      C2966   1.420       .  A
C2966      C2967   1.508       .  S
C2967      H2971   1.110   1_655  S
C2967      H2972   1.105       .  S
C2967      H2973   1.110       .  S
C2970      H2974   1.108       .  S
C2970      H2975   1.110       .  S
C2970      H2976   1.111       .  S
C2977      C2978   1.415       .  A
C2977      C2982   1.407       .  A
C2977      H2984   1.084       .  S
C2978      C2979   1.414       .  A
C2979      C2986   1.507       .  S
C2979      C2980   1.408       .  A
C2980      C2981   1.415       .  A
C2980      H2985   1.083       .  S
C2981      C2982   1.417       .  A
C2982      C2983   1.508       .  S
C2983      H2987   1.111       .  S
C2983      H2988   1.110       .  S
C2983      H2989   1.110       .  S
C2986      H2990   1.094       .  S
C2986      H2991   1.110       .  S
C2986      H2992   1.111       .  S
C2993      C2994   1.411       .  A
C2993      C2998   1.397       .  A
C2993      H3000   1.085       .  S
C2994      C2995   1.410       .  A
C2995      C3002   1.505       .  S
C2995      C2996   1.409       .  A
C2996      C2997   1.410       .  A
C2996      H3001   1.083       .  S
C2997      C2998   1.409       .  A
C2998      C2999   1.509       .  S
C2999      H3003   1.111       .  S
C2999      H3004   1.109       .  S
C2999      H3005   1.110       .  S
C3002      H3006   1.110       .  S
C3002      H3007   1.110       .  S
C3002      H3008   1.111       .  S
C3009      C3010   1.395       .  A
C3009      C3014   1.398       .  A
C3009      H3016   1.085       .  S
C3010      C3011   1.417       .  A
C3011      C3018   1.496   1_655  S
C3011      C3012   1.402       .  A
C3012      C3013   1.393       .  A
C3012      H3017   1.084       .  S
C3013      C3014   1.426       .  A
C3014      C3015   1.509       .  S
C3015      H3019   1.111       .  S
C3015      H3020   1.110       .  S
C3015      H3021   1.103       .  S
C3018      H3022   1.107       .  S
C3018      H3023   1.110       .  S
C3018      H3024   1.110       .  S
C3025      C3026   1.392       .  A
C3025      C3030   1.389       .  A
C3025      H3032   1.086       .  S
C3026      C3027   1.413       .  A
C3027      C3034   1.505       .  S
C3027      C3028   1.404       .  A
C3028      C3029   1.400       .  A
C3028      H3033   1.084       .  S
C3029      C3030   1.421       .  A
C3030      C3031   1.508       .  S
C3031      H3035   1.110       .  S
C3031      H3036   1.110       .  S
C3031      H3037   1.100       .  S
C3034      H3038   1.109   1_455  S
C3034      H3039   1.107   1_455  S
C3034      H3040   1.111   1_455  S
C3041      C3042   1.414       .  A
C3041      C3046   1.405       .  A
C3041      H3048   1.084       .  S
C3042      C3043   1.417       .  A
C3043      C3050   1.506       .  S
C3043      C3044   1.412       .  A
C3044      C3045   1.415       .  A
C3044      H3049   1.081       .  S
C3045      C3046   1.418       .  A
C3046      C3047   1.507       .  S
C3047      H3051   1.110       .  S
C3047      H3052   1.107       .  S
C3047      H3053   1.110       .  S
C3050      H3054   1.109       .  S
C3050      H3055   1.110       .  S
C3050      H3056   1.111       .  S
C3057      C3058   1.411       .  A
C3057      C3062   1.408       .  A
C3057      H3064   1.083       .  S
C3058      C3059   1.402       .  A
C3059      C3066   1.508       .  S
C3059      C3060   1.403       .  A
C3060      C3061   1.428       .  A
C3060      H3065   1.080       .  S
C3061      C3062   1.419       .  A
C3062      C3063   1.506       .  S
C3063      H3067   1.111       .  S
C3063      H3068   1.110       .  S
C3063      H3069   1.108       .  S
C3066      H3070   1.110       .  S
C3066      H3071   1.110       .  S
C3066      H3072   1.111       .  S
C3073      C3074   1.402       .  A
C3073      C3078   1.407       .  A
C3073      H3080   1.084       .  S
C3074      C3075   1.437       .  A
C3075      C3082   1.515       .  S
C3075      C3076   1.401       .  A
C3076      C3077   1.390       .  A
C3076      H3081   1.085       .  S
C3077      C3078   1.422       .  A
C3078      C3079   1.508       .  S
C3079      H3083   1.110       .  S
C3079      H3084   1.110       .  S
C3079      H3085   1.107       .  S
C3082      H3086   1.110       .  S
C3082      H3087   1.107       .  S
C3082      H3088   1.111       .  S
C3089      C3090   1.401       .  A
C3089      C3094   1.406       .  A
C3089      H3096   1.079       .  S
C3090      C3091   1.418       .  A
C3091      C3098   1.506       .  S
C3091      C3092   1.406       .  A
C3092      C3093   1.407       .  A
C3092      H3097   1.084       .  S
C3093      C3094   1.423       .  A
C3094      C3095   1.509       .  S
C3095      H3099   1.111       .  S
C3095      H3100   1.110       .  S
C3095      H3101   1.110       .  S
C3098      H3102   1.110       .  S
C3098      H3103   1.110       .  S
C3098      H3104   1.111       .  S
C3105      C3106   1.406       .  A
C3105      C3110   1.393       .  A
C3105      H3112   1.085       .  S
C3106      C3107   1.406       .  A
C3107      C3114   1.506       .  S
C3107      C3108   1.401       .  A
C3108      C3109   1.406       .  A
C3108      H3113   1.084       .  S
C3109      C3110   1.406       .  A
C3110      C3111   1.508       .  S
C3111      H3115   1.111       .  S
C3111      H3116   1.110       .  S
C3111      H3117   1.110       .  S
C3114      H3118   1.110       .  S
C3114      H3119   1.110       .  S
C3114      H3120   1.111       .  S
C3121      C3122   1.401       .  A
C3121      C3126   1.396       .  A
C3121      H3128   1.085       .  S
C3122      C3123   1.405       .  A
C3123      C3130   1.505       .  S
C3123      C3124   1.406       .  A
C3124      C3125   1.412       .  A
C3124      H3129   1.081       .  S
C3125      C3126   1.421       .  A
C3126      C3127   1.510       .  S
C3127      H3131   1.111       .  S
C3127      H3132   1.110       .  S
C3127      H3133   1.110       .  S
C3130      H3134   1.110       .  S
C3130      H3135   1.110       .  S
C3130      H3136   1.110       .  S
C3137      C3138   1.415       .  A
C3137      C3142   1.400       .  A
C3137      H3144   1.084       .  S
C3138      C3139   1.416       .  A
C3139      C3146   1.506       .  S
C3139      C3140   1.412       .  A
C3140      C3141   1.416       .  A
C3140      H3145   1.081       .  S
C3141      C3142   1.414       .  A
C3142      C3143   1.507       .  S
C3143      H3147   1.111       .  S
C3143      H3148   1.110       .  S
C3143      H3149   1.106       .  S
C3146      H3150   1.110       .  S
C3146      H3151   1.110       .  S
C3146      H3152   1.111       .  S
C3153      C3154   1.406       .  A
C3153      C3158   1.411       .  A
C3153      H3160   1.081       .  S
C3154      C3155   1.444       .  A
C3155      C3162   1.511       .  S
C3155      C3156   1.408       .  A
C3156      C3157   1.393       .  A
C3156      H3161   1.084       .  S
C3157      C3158   1.430       .  A
C3158      C3159   1.511       .  S
C3159      H3163   1.111       .  S
C3159      H3164   1.110       .  S
C3159      H3165   1.110       .  S
C3162      H3166   1.109       .  S
C3162      H3167   1.103       .  S
C3162      H3168   1.111       .  S
C3169      C3170   1.404       .  A
C3169      C3174   1.402       .  A
C3169      H3176   1.085       .  S
C3170      C3171   1.415       .  A
C3171      C3178   1.506       .  S
C3171      C3172   1.410       .  A
C3172      C3173   1.397       .  A
C3172      H3177   1.072       .  S
C3173      C3174   1.419       .  A
C3174      C3175   1.508       .  S
C3175      H3179   1.111       .  S
C3175      H3180   1.110       .  S
C3175      H3181   1.110       .  S
C3178      H3182   1.110       .  S
C3178      H3183   1.110       .  S
C3178      H3184   1.111       .  S
C3185      C3186   1.403       .  A
C3185      C3190   1.406       .  A
C3185      H3192   1.077       .  S
C3186      C3187   1.418       .  A
C3187      C3194   1.510       .  S
C3187      C3188   1.409       .  A
C3188      C3189   1.407       .  A
C3188      H3193   1.084       .  S
C3189      C3190   1.419       .  A
C3190      C3191   1.509       .  S
C3191      H3195   1.111       .  S
C3191      H3196   1.110       .  S
C3191      H3197   1.109       .  S
C3194      H3198   1.106       .  S
C3194      H3199   1.111       .  S
C3194      H3200   1.111       .  S
C3201      C3202   1.406       .  A
C3201      C3206   1.397       .  A
C3201      H3208   1.084       .  S
C3202      C3203   1.408       .  A
C3203      C3210   1.506       .  S
C3203      C3204   1.402       .  A
C3204      C3205   1.408       .  A
C3204      H3209   1.084       .  S
C3205      C3206   1.409       .  A
C3206      C3207   1.507       .  S
C3207      H3211   1.111       .  S
C3207      H3212   1.110       .  S
C3207      H3213   1.110       .  S
C3210      H3214   1.109       .  S
C3210      H3215   1.111       .  S
C3210      H3216   1.110       .  S
C3217      C3218   1.412       .  A
C3217      C3222   1.406       .  A
C3217      H3224   1.082       .  S
C3218      C3219   1.421       .  A
C3219      C3226   1.509       .  S
C3219      C3220   1.399       .  A
C3220      C3221   1.402       .  A
C3220      H3225   1.084       .  S
C3221      C3222   1.404       .  A
C3222      C3223   1.505       .  S
C3223      H3227   1.110       .  S
C3223      H3228   1.110       .  S
C3223      H3229   1.111       .  S
C3226      H3230   1.110       .  S
C3226      H3231   1.110       .  S
C3226      H3232   1.111       .  S
C3233      C3234   1.389       .  A
C3233      C3238   1.401       .  A
C3233      H3240   1.085       .  S
C3234      C3235   1.421       .  A
C3235      C3242   1.509       .  S
C3235      C3236   1.408       .  A
C3236      C3237   1.403       .  A
C3236      H3241   1.080       .  S
C3237      C3238   1.444       .  A
C3238      C3239   1.522       .  S
C3239      H3243   1.111       .  S
C3239      H3244   1.105       .  S
C3239      H3245   1.106       .  S
C3242      H3246   1.111       .  S
C3242      H3247   1.109       .  S
C3242      H3248   1.111       .  S
C3249      C3250   1.421       .  A
C3249      C3254   1.409       .  A
C3249      H3256   1.083       .  S
C3250      C3251   1.407       .  A
C3251      C3258   1.508       .  S
C3251      C3252   1.402       .  A
C3252      C3253   1.425       .  A
C3252      H3257   1.084       .  S
C3253      C3254   1.411       .  A
C3254      C3255   1.502       .  S
C3255      H3259   1.111       .  S
C3255      H3260   1.108       .  S
C3255      H3261   1.110       .  S
C3258      H3262   1.110       .  S
C3258      H3263   1.110       .  S
C3258      H3264   1.111       .  S
C3265      C3266   1.407       .  A
C3265      C3270   1.421       .  A
C3265      H3272   1.082       .  S
C3266      C3267   1.412       .  A
C3267      C3274   1.508       .  S
C3267      C3268   1.401       .  A
C3268      C3269   1.412       .  A
C3268      H3273   1.084       .  S
C3269      C3270   1.423       .  A
C3270      C3271   1.505       .  S
C3271      H3275   1.111       .  S
C3271      H3276   1.110       .  S
C3271      H3277   1.110       .  S
C3274      H3278   1.110       .  S
C3274      H3279   1.110       .  S
C3274      H3280   1.108       .  S
C3281      C3282   1.397       .  A
C3281      C3286   1.402       .  A
C3281      H3288   1.085       .  S
C3282      C3283   1.421       .  A
C3283      C3290   1.508       .  S
C3283      C3284   1.413       .  A
C3284      C3285   1.408       .  A
C3284      H3289   1.085       .  S
C3285      C3286   1.428       .  A
C3286      C3287   1.502       .  S
C3287      H3291   1.111       .  S
C3287      H3292   1.110       .  S
C3287      H3293   1.092       .  S
C3290      H3294   1.108       .  S
C3290      H3295   1.110       .  S
C3290      H3296   1.111       .  S
C3297      C3298   1.404       .  A
C3297      C3302   1.402       .  A
C3297      H3304   1.085       .  S
C3298      C3299   1.407       .  A
C3299      C3306   1.504       .  S
C3299      C3300   1.402       .  A
C3300      C3301   1.407       .  A
C3300      H3305   1.084       .  S
C3301      C3302   1.421       .  A
C3302      C3303   1.508       .  S
C3303      H3307   1.111       .  S
C3303      H3308   1.110       .  S
C3303      H3309   1.110       .  S
C3306      H3310   1.110       .  S
C3306      H3311   1.100       .  S
C3306      H3312   1.111       .  S
C3313      C3314   1.403       .  A
C3313      C3318   1.395       .  A
C3313      H3320   1.085       .  S
C3314      C3315   1.414       .  A
C3315      C3322   1.510       .  S
C3315      C3316   1.396       .  A
C3316      C3317   1.398       .  A
C3316      H3321   1.080       .  S
C3317      C3318   1.409       .  A
C3318      C3319   1.506       .  S
C3319      H3323   1.111       .  S
C3319      H3324   1.110       .  S
C3319      H3325   1.109       .  S
C3322      H3326   1.110       .  S
C3322      H3327   1.108       .  S
C3322      H3328   1.111       .  S
C3329      C3330   1.411       .  A
C3329      C3334   1.411       .  A
C3329      H3336   1.084       .  S
C3330      C3331   1.403       .  A
C3331      C3338   1.510       .  S
C3331      C3332   1.398       .  A
C3332      C3333   1.425       .  A
C3332      H3337   1.081       .  S
C3333      C3334   1.419       .  A
C3334      C3335   1.504       .  S
C3335      H3339   1.111       .  S
C3335      H3340   1.109       .  S
C3335      H3341   1.109       .  S
C3338      H3342   1.111       .  S
C3338      H3343   1.110       .  S
C3338      H3344   1.111       .  S
C3345      C3346   1.404       .  A
C3345      C3350   1.409       .  A
C3345      H3352   1.081       .  S
C3346      C3347   1.445       .  A
C3347      C3354   1.519       .  S
C3347      C3348   1.398       .  A
C3348      C3349   1.384       .  A
C3348      H3353   1.085       .  S
C3349      C3350   1.418       .  A
C3350      C3351   1.508       .  S
C3351      H3355   1.111       .  S
C3351      H3356   1.111       .  S
C3351      H3357   1.109       .  S
C3354      H3358   1.105       .  S
C3354      H3359   1.102       .  S
C3354      H3360   1.111       .  S
C3361      C3362   1.413       .  A
C3361      C3366   1.404       .  A
C3361      H3368   1.083       .  S
C3362      C3363   1.418       .  A
C3363      C3370   1.506       .  S
C3363      C3364   1.412       .  A
C3364      C3365   1.407       .  A
C3364      H3369   1.080       .  S
C3365      C3366   1.409       .  A
C3366      C3367   1.509       .  S
C3367      H3371   1.108       .  S
C3367      H3372   1.109       .  S
C3367      H3373   1.110       .  S
C3370      H3374   1.110       .  S
C3370      H3375   1.110       .  S
C3370      H3376   1.111       .  S
C3377      C3378   1.408       .  A
C3377      C3382   1.407       .  A
C3377      H3384   1.084       .  S
C3378      C3379   1.418       .  A
C3379      C3386   1.508       .  S
C3379      C3380   1.411       .  A
C3380      C3381   1.408       .  A
C3380      H3385   1.077       .  S
C3381      C3382   1.418       .  A
C3382      C3383   1.507       .  S
C3383      H3387   1.111       .  S
C3383      H3388   1.110       .  S
C3383      H3389   1.109       .  S
C3386      H3390   1.110       .  S
C3386      H3391   1.109       .  S
C3386      H3392   1.111       .  S
C3393      C3394   1.397       .  A
C3393      C3398   1.389       .  A
C3393      H3400   1.085       .  S
C3394      C3395   1.415       .  A
C3395      C3402   1.502       .  S
C3395      C3396   1.404       .  A
C3396      C3397   1.400       .  A
C3396      H3401   1.084       .  S
C3397      C3398   1.419       .  A
C3398      C3399   1.510       .  S
C3399      H3403   1.110       .  S
C3399      H3404   1.102       .  S
C3399      H3405   1.111       .  S
C3402      H3406   1.103       .  S
C3402      H3407   1.110       .  S
C3402      H3408   1.111       .  S
C3409      C3410   1.401       .  A
C3409      C3414   1.400       .  A
C3409      H3416   1.083       .  S
C3410      C3411   1.407       .  A
C3411      C3418   1.506       .  S
C3411      C3412   1.393       .  A
C3412      C3413   1.405       .  A
C3412      H3417   1.084       .  S
C3413      C3414   1.418       .  A
C3414      C3415   1.510       .  S
C3415      H3419   1.111       .  S
C3415      H3420   1.110       .  S
C3415      H3421   1.108       .  S
C3418      H3422   1.111       .  S
C3418      H3423   1.110       .  S
C3418      H3424   1.110       .  S
C3425      C3426   1.413   1_556  A
C3425      C3430   1.406       .  A
C3425      H3432   1.083       .  S
C3426      C3427   1.413       .  A
C3427      C3434   1.507       .  S
C3427      C3428   1.407       .  A
C3428      C3429   1.413       .  A
C3428      H3433   1.081       .  S
C3429      C3430   1.415   1_554  A
C3430      C3431   1.509       .  S
C3431      H3435   1.111       .  S
C3431      H3436   1.107   1_556  S
C3431      H3437   1.110       .  S
C3434      H3438   1.109       .  S
C3434      H3439   1.110       .  S
C3434      H3440   1.111       .  S
C3441      C3442   1.415       .  A
C3441      C3446   1.409       .  A
C3441      H3448   1.084   1_556  S
C3442      C3443   1.406       .  A
C3443      C3450   1.508       .  S
C3443      C3444   1.400       .  A
C3444      C3445   1.423       .  A
C3444      H3449   1.084       .  S
C3445      C3446   1.416       .  A
C3446      C3447   1.502   1_556  S
C3447      H3451   1.111       .  S
C3447      H3452   1.109       .  S
C3447      H3453   1.110       .  S
C3450      H3454   1.110       .  S
C3450      H3455   1.110       .  S
C3450      H3456   1.111       .  S
C3457      C3458   1.408       .  A
C3457      C3462   1.412       .  A
C3457      H3464   1.085       .  S
C3458      C3459   1.416       .  A
C3459      C3466   1.509       .  S
C3459      C3460   1.406       .  A
C3460      C3461   1.413       .  A
C3460      H3465   1.085       .  S
C3461      C3462   1.425       .  A
C3462      C3463   1.503       .  S
C3463      H3467   1.111       .  S
C3463      H3468   1.093       .  S
C3463      H3469   1.108       .  S
C3466      H3470   1.111       .  S
C3466      H3471   1.110       .  S
C3466      H3472   1.111       .  S
C3473      C3474   1.411       .  A
C3473      C3478   1.404       .  A
C3473      H3480   1.084       .  S
C3474      C3475   1.400       .  A
C3475      C3482   1.504       .  S
C3475      C3476   1.404       .  A
C3476      C3477   1.421       .  A
C3476      H3481   1.084       .  S
C3477      C3478   1.408       .  A
C3478      C3479   1.504       .  S
C3479      H3483   1.103       .  S
C3479      H3484   1.106       .  S
C3479      H3485   1.110       .  S
C3482      H3486   1.110       .  S
C3482      H3487   1.110       .  S
C3482      H3488   1.111       .  S
C3489      C3490   1.400       .  A
C3489      C3494   1.390       .  A
C3489      H3496   1.085       .  S
C3490      C3491   1.415       .  A
C3491      C3498   1.502   1_556  S
C3491      C3492   1.408       .  A
C3492      C3493   1.403       .  A
C3492      H3497   1.084       .  S
C3493      C3494   1.419       .  A
C3494      C3495   1.510       .  S
C3495      H3499   1.110       .  S
C3495      H3500   1.102       .  S
C3495      H3501   1.111       .  S
C3498      H3502   1.104       .  S
C3498      H3503   1.110       .  S
C3498      H3504   1.111       .  S
C3505      C3506   1.401       .  A
C3505      C3510   1.406       .  A
C3505      H3512   1.084       .  S
C3506      C3507   1.400       .  A
C3507      C3514   1.508       .  S
C3507      C3508   1.391       .  A
C3508      C3509   1.412       .  A
C3508      H3513   1.084       .  S
C3509      C3510   1.413       .  A
C3510      C3511   1.506       .  S
C3511      H3515   1.111       .  S
C3511      H3516   1.110       .  S
C3511      H3517   1.107       .  S
C3514      H3518   1.110       .  S
C3514      H3519   1.110       .  S
C3514      H3520   1.111       .  S
C3521      C3522   1.419       .  A
C3521      C3526   1.410       .  A
C3521      H3528   1.083       .  S
C3522      C3523   1.403       .  A
C3523      C3530   1.509       .  S
C3523      C3524   1.395       .  A
C3524      C3525   1.426       .  A
C3524      H3529   1.084       .  S
C3525      C3526   1.411       .  A
C3526      C3527   1.502       .  S
C3527      H3531   1.111       .  S
C3527      H3532   1.110       .  S
C3527      H3533   1.109       .  S
C3530      H3534   1.110       .  S
C3530      H3535   1.109       .  S
C3530      H3536   1.111       .  S
C3537      C3538   1.401       .  A
C3537      C3542   1.409       .  A
C3537      H3544   1.085       .  S
C3538      C3539   1.416       .  A
C3539      C3546   1.510       .  S
C3539      C3540   1.401       .  A
C3540      C3541   1.408       .  A
C3540      H3545   1.078       .  S
C3541      C3542   1.428       .  A
C3542      C3543   1.507       .  S
C3543      H3547   1.110       .  S
C3543      H3548   1.110       .  S
C3543      H3549   1.105       .  S
C3546      H3550   1.110       .  S
C3546      H3551   1.107       .  S
C3546      H3552   1.111       .  S
C3553      C3554   1.411       .  A
C3553      C3558   1.423       .  A
C3553      H3560   1.083       .  S
C3554      C3555   1.425       .  A
C3555      C3562   1.512       .  S
C3555      C3556   1.401       .  A
C3556      C3557   1.406       .  A
C3556      H3561   1.083       .  S
C3557      C3558   1.426       .  A
C3558      C3559   1.503       .  S
C3559      H3563   1.111       .  S
C3559      H3564   1.097       .  S
C3559      H3565   1.109       .  S
C3562      H3566   1.110       .  S
C3562      H3567   1.107       .  S
C3562      H3568   1.111       .  S
C3569      C3570   1.403       .  A
C3569      C3574   1.413       .  A
C3569      H3576   1.080       .  S
C3570      C3571   1.420       .  A
C3571      C3578   1.507       .  S
C3571      C3572   1.407       .  A
C3572      C3573   1.408       .  A
C3572      H3577   1.084       .  S
C3573      C3574   1.424       .  A
C3574      C3575   1.507       .  S
C3575      H3579   1.111       .  S
C3575      H3580   1.110       .  S
C3575      H3581   1.110       .  S
C3578      H3582   1.110       .  S
C3578      H3583   1.110       .  S
C3578      H3584   1.105       .  S
C3585      C3586   1.402       .  A
C3585      C3590   1.393       .  A
C3585      H3592   1.084       .  S
C3586      C3587   1.420       .  A
C3587      C3594   1.507       .  S
C3587      C3588   1.396       .  A
C3588      C3589   1.396       .  A
C3588      H3593   1.084       .  S
C3589      C3590   1.409       .  A
C3590      C3591   1.506       .  S
C3591      H3595   1.110       .  S
C3591      H3596   1.109       .  S
C3591      H3597   1.110       .  S
C3594      H3598   1.109       .  S
C3594      H3599   1.110       .  S
C3594      H3600   1.111       .  S
C3601      C3602   1.408       .  A
C3601      C3606   1.397       .  A
C3601      H3608   1.084       .  S
C3602      C3603   1.425       .  A
C3603      C3610   1.510       .  S
C3603      C3604   1.406       .  A
C3604      C3605   1.397       .  A
C3604      H3609   1.083       .  S
C3605      C3606   1.409       .  A
C3606      C3607   1.506       .  S
C3607      H3611   1.110       .  S
C3607      H3612   1.110       .  S
C3607      H3613   1.110       .  S
C3610      H3614   1.108       .  S
C3610      H3615   1.110       .  S
C3610      H3616   1.111       .  S
