geometry optimzed in LAMMPS
_audit_creation_date              2020-11-30 
_audit_creation_method            'lammps2cif' 
_symmetry_space_group_name_H-M    'P1' 
_symmetry_Int_Tables_number       1 
_symmetry_cell_setting            triclinic 
loop_ 
_symmetry_equiv_pos_as_xyz 
  x,y,z 
_cell_length_a                    26.91717852 
_cell_length_b                    43.50799794590295 
_cell_length_c                    36.11875104460381 
_cell_angle_alpha                 90.0715857004396 
_cell_angle_beta                  89.84266359354412 
_cell_angle_gamma                 89.8742329837238 
loop_ 
_atom_site_label 
_atom_site_type_symbol 
_atom_site_fract_x 
_atom_site_fract_y 
_atom_site_fract_z 
_atom_site_charge 
N1          N  0.56160950  0.37775853  0.82646447    -0.27400
N2          N  0.57586049  0.40030953  0.80434337    -0.35300
C3          C  0.59766613  0.42238041  0.82465317     0.00900
C4          C  0.59621158  0.41351666  0.86131794     0.06900
C5          C  0.57302362  0.38521031  0.86159932    -0.06200
H6          H  0.61118578  0.44397006  0.81377031     0.07600
H7          H  0.56512548  0.37106013  0.88550386     0.08800
Cu8        Cu  0.55695695  0.40281891  0.74892047     0.44200
Cu9        Cu  0.52804434  0.33776108  0.80757159     0.42000
Cu10       Cu  0.47870681  0.34138484  0.71526604     0.43900
N11         N  0.51355387  0.40621620  0.70189794    -0.34800
N12         N  0.48171211  0.38479854  0.69144697    -0.29100
C13         C  0.45379976  0.39588405  0.66361726    -0.05200
C14         C  0.46959497  0.42540004  0.65591249     0.07000
C15         C  0.50766819  0.43118243  0.68043302     0.00800
H16         H  0.42457098  0.38329959  0.64981610     0.08500
H17         H  0.52800804  0.45244289  0.68360105     0.07600
N18         N  0.48735954  0.30047843  0.74426508    -0.36300
N19         N  0.50352000  0.29932399  0.77877773    -0.28500
C20         C  0.50574537  0.26976099  0.78963135    -0.03700
C21         C  0.49112198  0.25142457  0.76032876     0.04900
C22         C  0.47984062  0.27162946  0.73198090     0.03000
H23         H  0.51913179  0.26212534  0.81630445     0.08100
H24         H  0.46742342  0.26579919  0.70439215     0.06900
C25         C  0.87904974  0.50359640  0.92365333     0.80100
N26         N  0.89771348  0.52134379  0.89595491    -0.78200
C27         C  0.94723270  0.52698382  0.89383631     0.82500
N28         N  0.97825964  0.51492466  0.91964377    -0.78200
C29         C  0.96001568  0.49796427  0.94827292     0.82600
N30         N  0.91040572  0.49231612  0.94979800    -0.79900
C31         C  0.67454871  0.46197301  0.92144089     0.80100
N32         N  0.64470992  0.46513034  0.95163963    -0.78200
C33         C  0.59874389  0.45216591  0.95262183     0.82500
N34         N  0.58404937  0.43440458  0.92365569    -0.78200
C35         C  0.61337874  0.43133706  0.89321680     0.82600
N36         N  0.65801686  0.44570410  0.89185416    -0.79900
N37         N  0.97902850  0.58228926  0.82211497    -0.27400
N38         N  0.00434151  0.55801732  0.81053194    -0.35300
C39         C  0.99835985  0.53498318  0.83501691     0.00900
C40         C  0.96725638  0.54516806  0.86300405     0.06900
C41         C  0.95540921  0.57515397  0.85387477    -0.06200
H42         H  0.01344105  0.51206979  0.83171003     0.07600
H43         H  0.93108445  0.59054659  0.86899290     0.08800
Cu44       Cu  0.03941664  0.55629989  0.75915960     0.44200
Cu45       Cu  0.97756973  0.62362985  0.79330144     0.42000
Cu46       Cu  0.01224382  0.61994043  0.69630943     0.43900
N47         N  0.05805228  0.55660292  0.70320433    -0.34800
N48         N  0.04469294  0.57848624  0.67978427    -0.29100
C49         C  0.05854588  0.57013868  0.64531164    -0.05200
C50         C  0.08259055  0.54205075  0.64737457     0.07000
C51         C  0.08176502  0.53419931  0.68440528     0.00800
H52         H  0.05257692  0.58381583  0.62071860     0.08500
H53         H  0.09599299  0.51328624  0.69665145     0.07600
N54         N  0.99338794  0.66073399  0.72345233    -0.36300
N55         N  0.98303121  0.66200126  0.75925508    -0.28500
C56         C  0.97874272  0.69161003  0.76956194    -0.03700
C57         C  0.98617041  0.70992972  0.73877811     0.04900
C58         C  0.99506683  0.68960583  0.70993983     0.03000
H59         H  0.97144935  0.69923928  0.79757870     0.08100
H60         H  0.00448617  0.69540839  0.68166499     0.06900
C61         C  0.17021742  0.49568294  0.59087310     0.80100
N62         N  0.15038964  0.51245035  0.61913740    -0.78200
C63         C  0.10360617  0.52389222  0.61676776     0.82500
N64         N  0.07561545  0.51745800  0.58662463    -0.78200
C65         C  0.09336346  0.49893335  0.55920111     0.82600
N66         N  0.14111998  0.48856330  0.56124023    -0.79900
C67         C  0.38158879  0.46917533  0.59783568     0.80100
N68         N  0.41331076  0.48276233  0.57339162    -0.78200
C69         C  0.46344022  0.47897399  0.57677214     0.82500
N70         N  0.48119747  0.46118007  0.60467069    -0.78200
C71         C  0.44977357  0.44640817  0.62796961     0.82600
N72         N  0.40004325  0.45042393  0.62452781    -0.79900
N73         N  0.97489120  0.37124118  0.32181985    -0.27400
N74         N  0.00132815  0.39520302  0.31093657    -0.35300
C75         C  0.99280885  0.41885767  0.33415997     0.00900
C76         C  0.95855625  0.40959597  0.36039835     0.06900
C77         C  0.94788957  0.37930772  0.35182071    -0.06200
H78         H  0.00925711  0.44141845  0.33150112     0.07600
H79         H  0.92309546  0.36411164  0.36665502     0.08800
Cu80       Cu  0.04252196  0.39604065  0.26219335     0.44200
Cu81       Cu  0.97843124  0.32860865  0.29538678     0.42000
Cu82       Cu  0.02460143  0.33076307  0.20107002     0.43900
N83         N  0.06398787  0.39558590  0.20686389    -0.34800
N84         N  0.05409128  0.37270566  0.18387463    -0.29100
C85         C  0.06764525  0.38099154  0.14935813    -0.05200
C86         C  0.08766643  0.41021690  0.15092476     0.07000
C87         C  0.08503600  0.41871699  0.18774953     0.00800
H88         H  0.06388543  0.36663855  0.12504997     0.08500
H89         H  0.09603439  0.44051572  0.19958089     0.07600
N90         N  0.00314640  0.29039912  0.22774114    -0.36300
N91         N  0.98880654  0.28945224  0.26279811    -0.28500
C92         C  0.98205449  0.25990023  0.27269061    -0.03700
C93         C  0.99164024  0.24143394  0.24223373     0.04900
C94         C  0.00472230  0.26152744  0.21420282     0.03000
H95         H  0.97052936  0.25242500  0.29994540     0.08100
H96         H  0.01613315  0.25553603  0.18636579     0.06900
C97         C  0.38206568  0.49066618  0.09613668     0.80100
N98         N  0.41432864  0.48106562  0.06942798    -0.78200
C99         C  0.46370617  0.48760435  0.07193177     0.82500
N100        N  0.48013983  0.50417602  0.10138740    -0.78200
C101        C  0.44798551  0.51494021  0.12731465     0.82600
N102        N  0.39894894  0.50809265  0.12472418    -0.79900
C103        C  0.17388127  0.45560307  0.09263883     0.80100
N104        N  0.14341072  0.46362887  0.06424901    -0.78200
C105        C  0.09509454  0.45446870  0.06338178     0.82500
N106        N  0.07769622  0.43620096  0.09112331    -0.78200
C107        C  0.10733168  0.42858720  0.12010933     0.82600
N108        N  0.15495286  0.43875557  0.12105938    -0.79900
N109        N  0.55332394  0.58396991  0.33054322    -0.27400
N110        N  0.56804911  0.56086098  0.30928716    -0.35300
C111        C  0.59284635  0.54030402  0.33007622     0.00900
C112        C  0.59297142  0.55065369  0.36623434     0.06900
C113        C  0.56733746  0.57826879  0.36565471    -0.06200
H114        H  0.60736353  0.51864381  0.31996943     0.07600
H115        H  0.55962385  0.59316693  0.38898902     0.08800
Cu116      Cu  0.54728798  0.55574244  0.25432790     0.44200
Cu117      Cu  0.51759755  0.62310033  0.31022978     0.42000
Cu118      Cu  0.48286547  0.62017944  0.21390047     0.43900
N119        N  0.50716871  0.55271960  0.20545565    -0.34800
N120        N  0.48121917  0.57588724  0.19171305    -0.29100
C121        C  0.45537619  0.56581429  0.16221606    -0.05200
C122        C  0.46613255  0.53501163  0.15700955     0.07000
C123        C  0.49932308  0.52748158  0.18467468     0.00800
H124        H  0.43119000  0.57997146  0.14546924     0.08500
H125        H  0.51564044  0.50515453  0.18986283     0.07600
N126        N  0.48824933  0.66111085  0.24382179    -0.36300
N127        N  0.49768049  0.66194420  0.27973803    -0.28500
C128        C  0.49794984  0.69147053  0.29108356    -0.03700
C129        C  0.48929531  0.71017187  0.26075588     0.04900
C130        C  0.48343896  0.69012959  0.23124224     0.03000
H131        H  0.50614968  0.69885136  0.31901684     0.08100
H132        H  0.47629092  0.69619230  0.20270548     0.06900
C133        C  0.87298636  0.45250924  0.42262076     0.80100
N134        N  0.90575336  0.46331988  0.44806629    -0.78200
C135        C  0.95510691  0.45685054  0.44565813     0.82500
N136        N  0.97173694  0.43960842  0.41673020    -0.78200
C137        C  0.93944415  0.42795012  0.39154198     0.82600
N138        N  0.89008762  0.43445508  0.39445877    -0.79900
C139        C  0.67210215  0.50206414  0.42645772     0.80100
N140        N  0.65529084  0.51817339  0.39672437    -0.78200
C141        C  0.61196570  0.53417643  0.39874929     0.82500
N142        N  0.58416238  0.53292439  0.43007046    -0.78200
C143        C  0.59871684  0.51535295  0.45917255     0.82600
N144        N  0.64356458  0.50079899  0.45765408    -0.79900
N145        N  0.92080003  0.08011440  0.17347788    -0.27400
N146        N  0.91053253  0.05671778  0.19560736    -0.35300
C147        C  0.88745113  0.03463590  0.17607088     0.00900
C148        C  0.88362550  0.04431746  0.13983221     0.06900
C149        C  0.90542121  0.07310874  0.13899281    -0.06200
H150        H  0.87641572  0.01255822  0.18708426     0.07600
H151        H  0.90960239  0.08790214  0.11513670     0.08800
Cu152      Cu  0.93446287  0.05333334  0.24999436     0.44200
Cu153      Cu  0.95356780  0.12098228  0.19177723     0.42000
Cu154      Cu  0.00335980  0.11756901  0.28456588     0.43900
N155        N  0.97720515  0.05133398  0.29762295    -0.34800
N156        N  0.00547563  0.07434973  0.30876355    -0.29100
C157        C  0.03260862  0.06511110  0.33796268    -0.05200
C158        C  0.02008849  0.03504080  0.34584468     0.07000
C159        C  0.98464550  0.02704242  0.31998383     0.00800
H160        H  0.05849638  0.07946473  0.35291972     0.08500
H161        H  0.96649220  0.00501001  0.31708740     0.07600
N162        N  0.99284914  0.15838798  0.25587782    -0.36300
N163        N  0.97725836  0.15972573  0.22120692    -0.28500
C164        C  0.97546314  0.18944395  0.21068780    -0.03700
C165        C  0.98961572  0.20757253  0.24041165     0.04900
C166        C  0.00014516  0.18711847  0.26859422     0.03000
H167        H  0.96295556  0.19733868  0.18388762     0.08100
H168        H  0.01247293  0.19268568  0.29628497     0.06900
C169        C  0.10556895  0.99487493  0.40977458     0.80100
N170        N  0.08819533  0.01156377  0.38072390    -0.78200
C171        C  0.03868367  0.01616740  0.37640423     0.82500
N172        N  0.00633754  0.00424898  0.40133529    -0.78200
C173        C  0.02291383  0.98858181  0.43139926     0.82600
N174        N  0.07277754  0.98382542  0.43529614    -0.79900
C175        C  0.31388182  0.95908077  0.41486413     0.80100
N176        N  0.33312555  0.94271451  0.38609787    -0.78200
C177        C  0.37951669  0.93064576  0.38802538     0.82500
N178        N  0.40776336  0.93597047  0.41839394    -0.78200
C179        C  0.39043351  0.95379682  0.44663489     0.82600
N180        N  0.34283451  0.96458792  0.44505339    -0.79900
N181        N  0.43217582  0.87535872  0.32286158    -0.27400
N182        N  0.42028424  0.89808449  0.30020757    -0.35300
C183        C  0.39969657  0.92109834  0.31994020     0.00900
C184        C  0.39944626  0.91272267  0.35681754     0.06900
C185        C  0.42045401  0.88367585  0.35778416    -0.06200
H186        H  0.38685677  0.94261835  0.30837933     0.07600
H187        H  0.42551048  0.86930906  0.38191482     0.08800
Cu188      Cu  0.43689900  0.89824498  0.24399039     0.44200
Cu189      Cu  0.46032782  0.83326748  0.30442296     0.42000
Cu190      Cu  0.50303866  0.83223116  0.20884581     0.43900
N191        N  0.47219034  0.89763015  0.19276741    -0.34800
N192        N  0.49985482  0.87438013  0.18106360    -0.29100
C193        C  0.52315705  0.88279539  0.14956616    -0.05200
C194        C  0.50841311  0.91242056  0.14070712     0.07000
C195        C  0.47613374  0.92108277  0.16865031     0.00800
H196        H  0.54900833  0.86848036  0.13431962     0.08500
H197        H  0.45887984  0.94337386  0.17225458     0.07600
N198        N  0.49382426  0.79261726  0.24096979    -0.36300
N199        N  0.47980642  0.79310147  0.27612770    -0.28500
C200        C  0.47681142  0.76397865  0.28864203    -0.03700
C201        C  0.48874984  0.74416962  0.25990218     0.04900
C202        C  0.49922712  0.76312931  0.23009771     0.03000
H203        H  0.46520735  0.75765375  0.31630032     0.08100
H204        H  0.50997194  0.75601055  0.20249984     0.06900
C205        C  0.79944632  0.99840472  0.08065981     0.80100
N206        N  0.81737219  0.01498863  0.10963938    -0.78200
C207        C  0.86419882  0.02650485  0.10851537     0.82500
N208        N  0.89407200  0.02003399  0.07921248    -0.78200
C209        C  0.87790658  0.00187830  0.05105202     0.82600
N210        N  0.83012764  0.99156606  0.05171356    -0.79900
C211        C  0.59321506  0.95887431  0.08251326     0.80100
N212        N  0.57599759  0.93926813  0.10886543    -0.78200
C213        C  0.52703565  0.93194969  0.11047612     0.82500
N214        N  0.49506137  0.94421725  0.08539744    -0.78200
C215        C  0.51192197  0.96285736  0.05781138     0.82600
N216        N  0.56114114  0.97004682  0.05672747    -0.79900
N217        N  0.50394828  0.08718748  0.68138506    -0.27400
N218        N  0.47878592  0.06349043  0.69451094    -0.35300
C219        C  0.48824699  0.03865371  0.67339552     0.00900
C220        C  0.52162357  0.04689858  0.64607255     0.06900
C221        C  0.53072894  0.07787623  0.65176301    -0.06200
H222        H  0.47273519  0.01606568  0.67806414     0.07600
H223        H  0.55453410  0.09259197  0.63539683     0.08800
Cu224      Cu  0.43710355  0.06496623  0.74305071     0.44200
Cu225      Cu  0.50011146  0.13057506  0.70577241     0.42000
Cu226      Cu  0.46126220  0.12881669  0.80353919     0.43900
N227        N  0.41337600  0.06638389  0.79786886    -0.34800
N228        N  0.42614975  0.08847977  0.82113756    -0.29100
C229        C  0.41109829  0.08060697  0.85550175    -0.05200
C230        C  0.38675213  0.05259120  0.85348762     0.07000
C231        C  0.38881082  0.04432918  0.81653969     0.00800
H232        H  0.41724701  0.09427598  0.88010295     0.08500
H233        H  0.37577128  0.02307255  0.80444794     0.07600
N234        N  0.48162421  0.16865390  0.77489609    -0.36300
N235        N  0.49219056  0.16944843  0.73906368    -0.28500
C236        C  0.49705827  0.19895168  0.72842819    -0.03700
C237        C  0.49014389  0.21757660  0.75906780     0.04900
C238        C  0.48078849  0.19764345  0.78807146     0.03000
H239        H  0.50528088  0.20628046  0.70046448     0.08100
H240        H  0.47190577  0.20382573  0.81635138     0.06900
C241        C  0.30211352  0.00528600  0.91157702     0.80100
N242        N  0.32018245  0.02242168  0.88298926    -0.78200
C243        C  0.36712321  0.03399785  0.88435030     0.82500
N244        N  0.39681296  0.02720023  0.91363799    -0.78200
C245        C  0.38042216  0.00852283  0.94128911     0.82600
N246        N  0.33279254  0.99817409  0.94017238    -0.79900
C247        C  0.09778632  0.96127993  0.91096151     0.80100
N248        N  0.08225051  0.94245568  0.88328502    -0.78200
C249        C  0.03495753  0.93175784  0.88289249     0.82500
N250        N  0.00255612  0.94048357  0.90977170    -0.78200
C251        C  0.01734562  0.95916683  0.93783818     0.82600
N252        N  0.06532889  0.96924736  0.93839311    -0.79900
N253        N  0.93448591  0.87335312  0.67103192    -0.27400
N254        N  0.92652025  0.89746391  0.69262805    -0.35300
C255        C  0.90245580  0.91929128  0.67331946     0.00900
C256        C  0.89543038  0.90856985  0.63777140     0.06900
C257        C  0.91663682  0.87957025  0.63704441    -0.06200
H258        H  0.89245753  0.94171161  0.68402162     0.07600
H259        H  0.91840207  0.86401098  0.61368614     0.08800
Cu260      Cu  0.95169408  0.90080594  0.74651524     0.44200
Cu261      Cu  0.96523320  0.83219313  0.68999798     0.42000
Cu262      Cu  0.99833498  0.83192237  0.78797902     0.43900
N263        N  0.98472858  0.89999080  0.79811281    -0.34800
N264        N  0.00256042  0.87471798  0.81347287    -0.29100
C265        C  0.02311585  0.88202717  0.84628360    -0.05200
C266        C  0.01758310  0.91332535  0.85161544     0.07000
C267        C  0.99320992  0.92401276  0.82065150     0.00800
H268        H  0.04087914  0.86582996  0.86472836     0.08500
H269        H  0.98301821  0.94755323  0.81466671     0.07600
N270        N  0.99135271  0.79247301  0.75582104    -0.36300
N271        N  0.98190274  0.79243274  0.71987344    -0.28500
C272        C  0.97981713  0.76307471  0.70792661    -0.03700
C273        C  0.98750724  0.74383079  0.73791082     0.04900
C274        C  0.99464627  0.76326686  0.76773669     0.03000
H275        H  0.97120783  0.75624876  0.67985879     0.08100
H276        H  0.00143499  0.75668100  0.79615336     0.06900
C277        C  0.80963926  0.95466203  0.57979069     0.80100
N278        N  0.82826818  0.93800853  0.60851824    -0.78200
C279        C  0.87462275  0.92572179  0.60652756     0.82500
N280        N  0.90329341  0.93106043  0.57639563    -0.78200
C281        C  0.88687585  0.94914735  0.54838061     0.82600
N282        N  0.83954741  0.96045437  0.55000084    -0.79900
C283        C  0.60500192  0.99867277  0.58788139     0.80100
N284        N  0.58873871  0.01791956  0.61516546    -0.78200
C285        C  0.54031954  0.02707062  0.61608542     0.82500
N286        N  0.50806651  0.01631389  0.59030782    -0.78200
C287        C  0.52384379  0.99739792  0.56267920     0.82600
N288        N  0.57257856  0.98900788  0.56154661    -0.79900
C289        C  0.75726617  0.96645789  0.58147392    -0.05600
C290        C  0.73101717  0.96589349  0.61534414    -0.33000
C291        C  0.68183047  0.97659155  0.61794468     0.36200
C292        C  0.65750641  0.98810080  0.58640036    -0.06000
C293        C  0.68310515  0.98828271  0.55249182    -0.32900
C294        C  0.73239321  0.97781973  0.54982968     0.36100
H295        H  0.74859369  0.95712296  0.64012464     0.16500
O296        O  0.65751838  0.97498919  0.65131134    -0.60400
H297        H  0.66483383  0.99679895  0.52783974     0.16500
O298        O  0.75558360  0.97879048  0.51600735    -0.60500
H299        H  0.74696263  0.95910496  0.50376138     0.43500
H300        H  0.64097034  0.95464354  0.65136371     0.43400
C301        C  0.14954739  0.97319027  0.91093566    -0.05600
C302        C  0.17528708  0.97634889  0.94443209    -0.33000
C303        C  0.22470875  0.98656285  0.94506740     0.36200
C304        C  0.24944772  0.99441960  0.91175136    -0.06000
C305        C  0.22317665  0.99180054  0.87828883    -0.32900
C306        C  0.17397054  0.98115149  0.87767455     0.36100
H307        H  0.15730300  0.97032851  0.97029460     0.16500
O308        O  0.24830784  0.98872675  0.97856933    -0.60400
H309        H  0.24100210  0.99766278  0.85232389     0.16500
O310        O  0.14999987  0.97887215  0.84432461    -0.60500
H311        H  0.13208199  0.99865425  0.84136328     0.43500
H312        H  0.24032178  0.00960596  0.98791435     0.43400
C313        C  0.47745039  0.97515271  0.02880387    -0.05600
C314        C  0.49624361  0.99401166  0.00036315    -0.33000
C315        C  0.46553830  0.00530010  0.97208340     0.36200
C316        C  0.41436360  0.99805285  0.97159776    -0.06000
C317        C  0.39546559  0.97954193  0.00030275    -0.32900
C318        C  0.42613010  0.96826797  0.02856436     0.36100
H319        H  0.53528390  0.99995866  0.99964806     0.16500
O320        O  0.48633278  0.02340282  0.94515360    -0.60400
H321        H  0.35646795  0.97348637  0.00096679     0.16500
O322        O  0.40528607  0.95004651  0.05534910    -0.60500
H323        H  0.39247316  0.96452383  0.07435881     0.43500
H324        H  0.49936794  0.00883988  0.92632095     0.43400
C325        C  0.98090154  0.96985235  0.96645339    -0.05600
C326        C  0.99298205  0.99492079  0.98925764    -0.33000
C327        C  0.95984964  0.00584160  0.01626795     0.36200
C328        C  0.91309208  0.99168422  0.02134262    -0.06000
C329        C  0.90071548  0.96675898  0.99831684    -0.32900
C330        C  0.93381403  0.95591936  0.97112121     0.36100
H331        H  0.02831802  0.00649119  0.98604422     0.16500
O332        O  0.97328605  0.03102080  0.03677792    -0.60400
H333        H  0.86536332  0.95521642  0.00160568     0.16500
O334        O  0.92009494  0.93105819  0.95014247    -0.60500
H335        H  0.89859204  0.93955150  0.93036389     0.43500
H336        H  0.99543652  0.02294368  0.05641244     0.43400
C337        C  0.64616012  0.96871470  0.08234826    -0.05600
C338        C  0.66902113  0.97722326  0.04885911    -0.33000
C339        C  0.71880307  0.98668138  0.04786072     0.36200
C340        C  0.74684350  0.98804680  0.08076196    -0.06000
C341        C  0.72377658  0.98009626  0.11433858    -0.32900
C342        C  0.67413083  0.97039208  0.11532783     0.36100
H343        H  0.64830914  0.97638160  0.02320012     0.16500
O344        O  0.73932244  0.99508134  0.01459249    -0.60400
H345        H  0.74444958  0.98118935  0.14000397     0.16500
O346        O  0.65325017  0.96305106  0.14884324    -0.60500
H347        H  0.63843205  0.98248403  0.15813484     0.43500
H348        H  0.73409510  0.01760795  0.01290954     0.43400
C349        C  0.42430477  0.96350433  0.47730507    -0.05600
C350        C  0.40582441  0.98159523  0.50662225    -0.33000
C351        C  0.43721869  0.99272650  0.53457133     0.36200
C352        C  0.48860395  0.98578320  0.53393836    -0.06000
C353        C  0.50681495  0.96724480  0.50499890    -0.32900
C354        C  0.47550924  0.95604343  0.47720551     0.36100
H355        H  0.36675250  0.98752644  0.50786066     0.16500
O356        O  0.41684374  0.01008542  0.56248319    -0.60400
H357        H  0.54588841  0.96135013  0.50356286     0.16500
O358        O  0.49610016  0.93845257  0.44960276    -0.60500
H359        H  0.49573950  0.91712082  0.45925880     0.43500
H360        H  0.41453134  0.03121409  0.55233401     0.43400
C361        C  0.98710937  0.97759863  0.46024051    -0.05600
C362        C  0.00448779  0.95972729  0.48987308    -0.33000
C363        C  0.97256690  0.94993359  0.51819060     0.36200
C364        C  0.92150736  0.95798225  0.51768616    -0.06000
C365        C  0.90392127  0.97543298  0.48772230    -0.32900
C366        C  0.93582555  0.98497678  0.45918139     0.36100
H367        H  0.04333391  0.95331661  0.49142995     0.16500
O368        O  0.99214623  0.93241850  0.54614713    -0.60400
H369        H  0.86509184  0.98189823  0.48628306     0.16500
O370        O  0.91627520  0.00212777  0.43089886    -0.60500
H371        H  0.90358691  0.98691531  0.41278544     0.43500
H372        H  0.00643207  0.94735049  0.56393002     0.43400
C373        C  0.26128884  0.96991152  0.41356846    -0.05600
C374        C  0.23467585  0.97519987  0.44657940    -0.33000
C375        C  0.18421706  0.98358558  0.44588680     0.36200
C376        C  0.15934337  0.98703855  0.41181018    -0.06000
C377        C  0.18633908  0.98271448  0.37887616    -0.32900
C378        C  0.23654426  0.97422335  0.37949279     0.36100
H379        H  0.25272505  0.97226659  0.47311485     0.16500
O380        O  0.15972446  0.98849440  0.47871141    -0.60400
H381        H  0.16819229  0.98537585  0.35232803     0.16500
O382        O  0.26087283  0.97013166  0.34642649    -0.60500
H383        H  0.27732736  0.99005999  0.34131824     0.43500
H384        H  0.16330698  0.01079439  0.48372945     0.43400
C385        C  0.81996347  0.46252069  0.42415200    -0.05600
C386        C  0.79217742  0.46499996  0.39138741    -0.33000
C387        C  0.74376814  0.47711618  0.39177531     0.36200
C388        C  0.72190207  0.48700383  0.42537183    -0.06000
C389        C  0.74881835  0.48316378  0.45831254    -0.32900
C390        C  0.79719333  0.47114586  0.45792345     0.36100
H391        H  0.80848840  0.45833993  0.36511693     0.16500
O392        O  0.71841119  0.47936315  0.35900647    -0.60400
H393        H  0.73283085  0.49025040  0.48453687     0.16500
O394        O  0.82193397  0.46823094  0.49085984    -0.60500
H395        H  0.81630313  0.44668907  0.49873742     0.43500
H396        H  0.69853694  0.46024543  0.35736340     0.43400
C397        C  0.32930402  0.48134699  0.09489453    -0.05600
C398        C  0.30144542  0.48582285  0.06262997    -0.33000
C399        C  0.25100594  0.47777712  0.06132901     0.36200
C400        C  0.22741521  0.46474973  0.09272305    -0.06000
C401        C  0.25608593  0.45982615  0.12474643    -0.32900
C402        C  0.30639376  0.46791241  0.12591828     0.36100
H403        H  0.31871552  0.49598562  0.03844264     0.16500
O404        O  0.22543377  0.48290292  0.02916518    -0.60400
H405        H  0.23961159  0.44960771  0.14918050     0.16500
O406        O  0.33315210  0.46204270  0.15739927    -0.60500
H407        H  0.34759586  0.44127868  0.15361880     0.43500
H408        H  0.22956133  0.46379948  0.01445522     0.43400
C409        C  0.49823088  0.49140430  0.54825223    -0.05600
C410        C  0.47967237  0.50093790  0.51379453    -0.33000
C411        C  0.51169226  0.50982308  0.48509810     0.36200
C412        C  0.56371470  0.50917592  0.49025719    -0.06000
C413        C  0.58228005  0.50090452  0.52513481    -0.32900
C414        C  0.55022781  0.49223716  0.55397430     0.36100
H415        H  0.44010036  0.50054241  0.50844902     0.16500
O416        O  0.49160331  0.51708950  0.45136401    -0.60400
H417        H  0.62197945  0.50083345  0.53003411     0.16500
O418        O  0.57029405  0.48500076  0.58774289    -0.60500
H419        H  0.58327538  0.46376027  0.58499880     0.43500
H420        H  0.48223009  0.53909513  0.45326837     0.43400
C421        C  0.05920031  0.48863939  0.52909699    -0.05600
C422        C  0.00798643  0.49439674  0.53273402    -0.33000
C423        C  0.97397187  0.48427648  0.50619997     0.36200
C424        C  0.99051871  0.46822567  0.47441602    -0.06000
C425        C  0.04187135  0.46269414  0.47049956    -0.32900
C426        C  0.07595481  0.47269044  0.49730716     0.36100
H427        H  0.99361098  0.50643917  0.55675337     0.16500
O428        O  0.92454428  0.49028025  0.51199783    -0.60400
H429        H  0.05598366  0.45047506  0.44652401     0.16500
O430        O  0.12542364  0.46647677  0.49204637    -0.60500
H431        H  0.13841056  0.48417455  0.47773194     0.43500
H432        H  0.91280233  0.47358495  0.52850448     0.43400
C433        C  0.22381319  0.48683334  0.59210578    -0.05600
C434        C  0.24889697  0.48740030  0.62625048    -0.33000
C435        C  0.29996364  0.48148891  0.62839313     0.36200
C436        C  0.32743945  0.47508189  0.59604339    -0.06000
C437        C  0.30267167  0.47410340  0.56195202    -0.32900
C438        C  0.25129234  0.47951144  0.55981417     0.36100
H439        H  0.22897189  0.49270860  0.65157057     0.16500
O440        O  0.32286718  0.48273836  0.66224812    -0.60400
H441        H  0.32318004  0.46883106  0.53687034     0.16500
O442        O  0.22868346  0.47782323  0.52592053    -0.60500
H443        H  0.23152050  0.49875393  0.51529433     0.43500
H444        H  0.33327070  0.50445196  0.66523769     0.43400
C445        C  0.56414161  0.45932845  0.98387504    -0.05600
C446        C  0.58168681  0.47630692  0.01426915    -0.33000
C447        C  0.54994451  0.48546829  0.04300382     0.36200
C448        C  0.49903792  0.47745347  0.04231289    -0.06000
C449        C  0.48165896  0.45987787  0.01230331    -0.32900
C450        C  0.51346861  0.45080405  0.98344132     0.36100
H451        H  0.62033958  0.48306627  0.01572861     0.16500
O452        O  0.56951446  0.50236150  0.07151064    -0.60400
H453        H  0.44293612  0.45328806  0.01081782     0.16500
O454        O  0.49389205  0.43452382  0.95442878    -0.60500
H455        H  0.49569222  0.41267588  0.96212879     0.43500
H456        H  0.56836251  0.52400517  0.06293929     0.43400
C457        C  0.99405161  0.48613007  0.97766574    -0.05600
C458        C  0.04434680  0.49470981  0.97714076    -0.33000
C459        C  0.07742793  0.48475050  0.00449181     0.36200
C460        C  0.06103650  0.46524897  0.03334291    -0.06000
C461        C  0.01072456  0.45648872  0.03377556    -0.32900
C462        C  0.97749936  0.46665993  0.00651815     0.36100
H463        H  0.05843311  0.50961742  0.95555462     0.16500
O464        O  0.12581217  0.49430901  0.00235209    -0.60400
H465        H  0.99664512  0.44172395  0.05550610     0.16500
O466        O  0.92882857  0.45761866  0.00889931    -0.60500
H467        H  0.92719273  0.43789998  0.99515343     0.43500
H468        H  0.12643565  0.51452948  0.01506123     0.43400
C469        C  0.72584138  0.47430143  0.92187362    -0.05600
C470        C  0.75201274  0.47541920  0.95541024    -0.33000
C471        C  0.80144482  0.48529105  0.95653941     0.36200
C472        C  0.82576018  0.49465250  0.92374947    -0.06000
C473        C  0.79895955  0.49449501  0.89037721    -0.32900
C474        C  0.74970738  0.48413430  0.88918354     0.36100
H475        H  0.73445759  0.46792750  0.98086971     0.16500
O476        O  0.82555205  0.48550349  0.98993322    -0.60400
H477        H  0.81654872  0.50171050  0.86482381     0.16500
O478        O  0.72487185  0.48448338  0.85606550    -0.60500
H479        H  0.73582559  0.46561700  0.84290886     0.43500
H480        H  0.82050713  0.50651670  0.99994243     0.43400
loop_ 
_geom_bond_atom_site_label_1 
_geom_bond_atom_site_label_2 
_geom_bond_distance 
_geom_bond_site_symmetry_2 
_ccdc_geom_bond_type 
N1            N2   1.323       .  A
N1            C5   1.346       .  A
N1           Cu9   2.078       .  S
N2            C3   1.345       .  A
N2           Cu8   2.070       .  S
C3            C4   1.380       .  A
C3            H6   1.082       .  S
C4            C5   1.382       .  A
C4           C35   1.464       .  S
C5            H7   1.082       .  S
Cu8          N11   2.069       .  S
Cu9          N19   2.078       .  S
Cu10         N12   2.078       .  S
Cu10         N18   2.079       .  S
N11          N12   1.323       .  A
N11          C15   1.345       .  A
N12          C13   1.346       .  A
C13          C14   1.382       .  A
C13          H16   1.082       .  S
C14          C15   1.380       .  A
C14          C71   1.463       .  S
C15          H17   1.082       .  S
N18          N19   1.322       .  A
N18          C22   1.347       .  A
N19          C20   1.346       .  A
C20          C21   1.383       .  A
C20          H23   1.082       .  S
C21          C22   1.384       .  A
C21         C237   1.474       .  S
C22          H24   1.082       .  S
C25          N26   1.360       .  A
C25          N30   1.360       .  A
C25         C472   1.487       .  S
N26          C27   1.358       .  A
C27          N28   1.358       .  A
C27          C40   1.469       .  S
N28          C29   1.362       .  A
C29          N30   1.359       .  A
C29         C457   1.495       .  S
C31          N32   1.359       .  A
C31          N36   1.358       .  A
C31         C469   1.482       .  S
N32          C33   1.361       .  A
C33          N34   1.360       .  A
C33         C445   1.494       .  S
N34          C35   1.358       .  A
C35          N36   1.356       .  A
N37          N38   1.322   1_655  A
N37          C41   1.347       .  A
N37         Cu45   2.080       .  S
N38          C39   1.347   1_455  A
N38         Cu44   2.081       .  S
C39          C40   1.383       .  A
C39          H42   1.082   1_655  S
C40          C41   1.383       .  A
C41          H43   1.082       .  S
Cu44         N47   2.081       .  S
Cu45         N55   2.080       .  S
Cu46         N48   2.088       .  S
Cu46         N54   2.088   1_455  S
N47          N48   1.324       .  A
N47          C51   1.346       .  A
N48          C49   1.348       .  A
C49          C50   1.384       .  A
C49          H52   1.082       .  S
C50          C51   1.381       .  A
C50          C63   1.469       .  S
C51          H53   1.082       .  S
N54          N55   1.323       .  A
N54          C58   1.349       .  A
N55          C56   1.345       .  A
C56          C57   1.383       .  A
C56          H59   1.082       .  S
C57          C58   1.385       .  A
C57         C273   1.476       .  S
C58          H60   1.082   1_655  S
C61          N62   1.361       .  A
C61          N66   1.364       .  A
C61         C433   1.493       .  S
N62          C63   1.356       .  A
C63          N64   1.355       .  A
N64          C65   1.361       .  A
C65          N66   1.364       .  A
C65         C421   1.495       .  S
C67          N68   1.363       .  A
C67          N72   1.358       .  A
C67         C436   1.481       .  S
N68          C69   1.365       .  A
C69          N70   1.359       .  A
C69         C409   1.493       .  S
N70          C71   1.355       .  A
C71          N72   1.356       .  A
N73          N74   1.323   1_655  A
N73          C77   1.349       .  A
N73         Cu81   2.087       .  S
N74          C75   1.346   1_455  A
N74         Cu80   2.078       .  S
C75          C76   1.381       .  A
C75          H78   1.082   1_655  S
C76          C77   1.384       .  A
C76         C137   1.470       .  S
C77          H79   1.082       .  S
Cu80         N83   2.079       .  S
Cu81         N91   2.087       .  S
Cu82         N84   2.086       .  S
Cu82         N90   2.086       .  S
N83          N84   1.324       .  A
N83          C87   1.346       .  A
N84          C85   1.348       .  A
C85          C86   1.383       .  A
C85          H88   1.082       .  S
C86          C87   1.382       .  A
C86         C107   1.469       .  S
C87          H89   1.082       .  S
N90          N91   1.323   1_455  A
N90          C94   1.348       .  A
N91          C92   1.347       .  A
C92          C93   1.385       .  A
C92          H95   1.082       .  S
C93          C94   1.384   1_655  A
C93         C165   1.476       .  S
C94          H96   1.082       .  S
C97          N98   1.361       .  A
C97         N102   1.360       .  A
C97         C397   1.479       .  S
N98          C99   1.363       .  A
C99         N100   1.360       .  A
C99         C448   1.495       .  S
N100        C101   1.356       .  A
C101        N102   1.357       .  A
C101        C122   1.468       .  S
C103        N104   1.360       .  A
C103        N108   1.361       .  A
C103        C400   1.496       .  S
N104        C105   1.361       .  A
C105        N106   1.362       .  A
C105        C460   1.497       .  S
N106        C107   1.359       .  A
C107        N108   1.357       .  A
N109        N110   1.324       .  A
N109        C113   1.347       .  A
N109       Cu117   2.088       .  S
N110        C111   1.346       .  A
N110       Cu116   2.076       .  S
C111        C112   1.381       .  A
C111        H114   1.082       .  S
C112        C113   1.384       .  A
C112        C141   1.469       .  S
C113        H115   1.082       .  S
Cu116       N119   2.076       .  S
Cu117       N127   2.088       .  S
Cu118       N120   2.087       .  S
Cu118       N126   2.087       .  S
N119        N120   1.323       .  A
N119        C123   1.347       .  A
N120        C121   1.347       .  A
C121        C122   1.383       .  A
C121        H124   1.082       .  S
C122        C123   1.381       .  A
C123        H125   1.082       .  S
N126        N127   1.323       .  A
N126        C130   1.348       .  A
N127        C128   1.348       .  A
C128        C129   1.385       .  A
C128        H131   1.082       .  S
C129        C130   1.386       .  A
C129        C201   1.480       .  S
C130        H132   1.082       .  S
C133        N134   1.360       .  A
C133        N138   1.363       .  A
C133        C385   1.492       .  S
N134        C135   1.360       .  A
C135        N136   1.360       .  A
C135        C424   1.496       .  S
N136        C137   1.359       .  A
C137        N138   1.362       .  A
C139        N140   1.361       .  A
C139        N144   1.363       .  A
C139        C388   1.491       .  S
N140        C141   1.359       .  A
C141        N142   1.356       .  A
N142        C143   1.359       .  A
C143        N144   1.363       .  A
C143        C412   1.489       .  S
N145        N146   1.324       .  A
N145        C149   1.348       .  A
N145       Cu153   2.094       .  S
N146        C147   1.345       .  A
N146       Cu152   2.074       .  S
C147        C148   1.380       .  A
C147        H150   1.082       .  S
C148        C149   1.385       .  A
C148        C207   1.468       .  S
C149        H151   1.082       .  S
Cu152       N155   2.074       .  S
Cu153       N163   2.093       .  S
Cu154       N156   2.075       .  S
Cu154       N162   2.076   1_455  S
N155        N156   1.322   1_655  A
N155        C159   1.346       .  A
N156        C157   1.346       .  A
C157        C158   1.382       .  A
C157        H160   1.082       .  S
C158        C159   1.382   1_455  A
C158        C171   1.465       .  S
C159        H161   1.082       .  S
N162        N163   1.323       .  A
N162        C166   1.346   1_655  A
N163        C164   1.349       .  A
C164        C165   1.386       .  A
C164        H167   1.082       .  S
C165        C166   1.382   1_655  A
C166        H168   1.082       .  S
C169        N170   1.360   1_565  A
C169        N174   1.363       .  A
C169        C376   1.488       .  S
N170        C171   1.357       .  A
C171        N172   1.355       .  A
N172        C173   1.359   1_545  A
C173        N174   1.365       .  A
C173        C361   1.497   1_455  S
C175        N176   1.360       .  A
C175        N180   1.363       .  A
C175        C373   1.492       .  S
N176        C177   1.356       .  A
C177        N178   1.356       .  A
C177        C184   1.469       .  S
N178        C179   1.361       .  A
C179        N180   1.365       .  A
C179        C349   1.498       .  S
N181        N182   1.324       .  A
N181        C185   1.348       .  A
N181       Cu189   2.088       .  S
N182        C183   1.346       .  A
N182       Cu188   2.078       .  S
C183        C184   1.381       .  A
C183        H186   1.082       .  S
C184        C185   1.384       .  A
C185        H187   1.082       .  S
Cu188       N191   2.078       .  S
Cu189       N199   2.089       .  S
Cu190       N192   2.093       .  S
Cu190       N198   2.094       .  S
N191        N192   1.323       .  A
N191        C195   1.347       .  A
N192        C193   1.349       .  A
C193        C194   1.386       .  A
C193        H196   1.082       .  S
C194        C195   1.381       .  A
C194        C213   1.472       .  S
C195        H197   1.082       .  S
N198        N199   1.324       .  A
N198        C202   1.349       .  A
N199        C200   1.348       .  A
C200        C201   1.385       .  A
C200        H203   1.082       .  S
C201        C202   1.386       .  A
C202        H204   1.082       .  S
C205        N206   1.361   1_565  A
C205        N210   1.363       .  A
C205        C340   1.487       .  S
N206        C207   1.358       .  A
C207        N208   1.356       .  A
N208        C209   1.360       .  A
C209        N210   1.363   1_545  A
C209        C328   1.496   1_545  S
C211        N212   1.360       .  A
C211        N216   1.361       .  A
C211        C337   1.489       .  S
N212        C213   1.358       .  A
C213        N214   1.360       .  A
N214        C215   1.363       .  A
C215        N216   1.362       .  A
C215        C313   1.500       .  S
N217        N218   1.322       .  A
N217        C221   1.350       .  A
N217       Cu225   2.084       .  S
N218        C219   1.345       .  A
N218       Cu224   2.080       .  S
C219        C220   1.381       .  A
C219        H222   1.082       .  S
C220        C221   1.386       .  A
C220        C285   1.471       .  S
C221        H223   1.082       .  S
Cu224       N227   2.080       .  S
Cu225       N235   2.084       .  S
Cu226       N228   2.094       .  S
Cu226       N234   2.093       .  S
N227        N228   1.323       .  A
N227        C231   1.347       .  A
N228        C229   1.349       .  A
C229        C230   1.387       .  A
C229        H232   1.082       .  S
C230        C231   1.383       .  A
C230        C243   1.475       .  S
C231        H233   1.082       .  S
N234        N235   1.325       .  A
N234        C238   1.348       .  A
N235        C236   1.347       .  A
C236        C237   1.383       .  A
C236        H239   1.082       .  S
C237        C238   1.384       .  A
C238        H240   1.082       .  S
C241        N242   1.364       .  A
C241        N246   1.360   1_545  A
C241        C304   1.495   1_545  S
N242        C243   1.362       .  A
C243        N244   1.360       .  A
N244        C245   1.361       .  A
C245        N246   1.360   1_545  A
C245        C316   1.498   1_545  S
C247        N248   1.359       .  A
C247        N252   1.363       .  A
C247        C301   1.488       .  S
N248        C249   1.356       .  A
C249        N250   1.357       .  A
C249        C266   1.463       .  S
N250        C251   1.360       .  A
C251        N252   1.365       .  A
C251        C325   1.496   1_455  S
N253        N254   1.323       .  A
N253        C257   1.347       .  A
N253       Cu261   2.088       .  S
N254        C255   1.345       .  A
N254       Cu260   2.068       .  S
C255        C256   1.379       .  A
C255        H258   1.082       .  S
C256        C257   1.384       .  A
C256        C279   1.466       .  S
C257        H259   1.082       .  S
Cu260       N263   2.067       .  S
Cu261       N271   2.089       .  S
Cu262       N264   2.080   1_655  S
Cu262       N270   2.080       .  S
N263        N264   1.322   1_655  A
N263        C267   1.344       .  A
N264        C265   1.347       .  A
C265        C266   1.383       .  A
C265        H268   1.082       .  S
C266        C267   1.379   1_455  A
C267        H269   1.082       .  S
N270        N271   1.324       .  A
N270        C274   1.345       .  A
N271        C272   1.349       .  A
C272        C273   1.385       .  A
C272        H275   1.082       .  S
C273        C274   1.383       .  A
C274        H276   1.082   1_655  S
C277        N278   1.362       .  A
C277        N282   1.366       .  A
C277        C289   1.500       .  S
N278        C279   1.358       .  A
C279        N280   1.353       .  A
N280        C281   1.357       .  A
C281        N282   1.366       .  A
C281        C364   1.498       .  S
C283        N284   1.363   1_565  A
C283        N288   1.360       .  A
C283        C292   1.486       .  S
N284        C285   1.362       .  A
C285        N286   1.358       .  A
N286        C287   1.359   1_545  A
C287        N288   1.361       .  A
C287        C352   1.496       .  S
C289        C290   1.411       .  A
C289        C294   1.415       .  A
C290        C291   1.405       .  A
C290        H295   1.083       .  S
C291        C292   1.408       .  A
C291        O296   1.372       .  S
C292        C293   1.404       .  A
C293        C294   1.405       .  A
C293        H297   1.084       .  S
C294        O298   1.371       .  S
O296        H300   0.992       .  S
O298        H299   0.992       .  S
C301        C302   1.403       .  A
C301        C306   1.412       .  A
C302        C303   1.404       .  A
C302        H307   1.084       .  S
C303        C304   1.416       .  A
C303        O308   1.371       .  S
C304        C305   1.407       .  A
C305        C306   1.404       .  A
C305        H309   1.083       .  S
C306        O310   1.372       .  S
O308        H312   0.992   1_565  S
O310        H311   0.992       .  S
C313        C314   1.409       .  A
C313        C318   1.414       .  A
C314        C315   1.404   1_564  A
C314        H319   1.083   1_554  S
C315        C316   1.414   1_545  A
C315        O320   1.371       .  S
C316        C317   1.408   1_556  A
C317        C318   1.403       .  A
C317        H321   1.083       .  S
C318        O322   1.371       .  S
O320        H324   0.992       .  S
O322        H323   0.992       .  S
C325        C326   1.405       .  A
C325        C330   1.416       .  A
C326        C327   1.402   1_566  A
C326        H331   1.083   1_665  S
C327        C328   1.414   1_545  A
C327        O332   1.371       .  S
C328        C329   1.407   1_554  A
C329        C330   1.405       .  A
C329        H333   1.083   1_556  S
C330        O334   1.372       .  S
O332        H336   0.992       .  S
O334        H335   0.992       .  S
C337        C338   1.406       .  A
C337        C342   1.413       .  A
C338        C339   1.403       .  A
C338        H343   1.083       .  S
C339        C340   1.411       .  A
C339        O344   1.371       .  S
C340        C341   1.405       .  A
C341        C342   1.403       .  A
C341        H345   1.084       .  S
C342        O346   1.372       .  S
O344        H348   0.992   1_565  S
O346        H347   0.992       .  S
C349        C350   1.408       .  A
C349        C354   1.415       .  A
C350        C351   1.405       .  A
C350        H355   1.083       .  S
C351        C352   1.415       .  A
C351        O356   1.371   1_565  S
C352        C353   1.406       .  A
C353        C354   1.400       .  A
C353        H357   1.083       .  S
C354        O358   1.371       .  S
O356        H360   0.992       .  S
O358        H359   0.992       .  S
C361        C362   1.404   1_655  A
C361        C366   1.417       .  A
C362        C363   1.401   1_455  A
C362        H367   1.083       .  S
C363        C364   1.418       .  A
C363        O368   1.372       .  S
C364        C365   1.405       .  A
C365        C366   1.404       .  A
C365        H369   1.083       .  S
C366        O370   1.371   1_565  S
O368        H372   0.992   1_655  S
O370        H371   0.992   1_545  S
C373        C374   1.408       .  A
C373        C378   1.414       .  A
C374        C375   1.406       .  A
C374        H379   1.083       .  S
C375        C376   1.411       .  A
C375        O380   1.371       .  S
C376        C377   1.404       .  A
C377        C378   1.400       .  A
C377        H381   1.084       .  S
C378        O382   1.372       .  S
O380        H384   0.992   1_565  S
O382        H383   0.992       .  S
C385        C386   1.406       .  A
C385        C390   1.414       .  A
C386        C387   1.405       .  A
C386        H391   1.083       .  S
C387        C388   1.413       .  A
C387        O392   1.371       .  S
C388        C389   1.405       .  A
C389        C390   1.402       .  A
C389        H393   1.083       .  S
C390        O394   1.371       .  S
O392        H396   0.992       .  S
O394        H395   0.992       .  S
C397        C398   1.401       .  A
C397        C402   1.406       .  A
C398        C399   1.404       .  A
C398        H403   1.084       .  S
C399        C400   1.418       .  A
C399        O404   1.370       .  S
C400        C401   1.409       .  A
C401        C402   1.401       .  A
C401        H405   1.083       .  S
C402        O406   1.372       .  S
O404        H408   0.992       .  S
O406        H407   0.992       .  S
C409        C410   1.405       .  A
C409        C414   1.416       .  A
C410        C411   1.401       .  A
C410        H415   1.083       .  S
C411        C412   1.413       .  A
C411        O416   1.371       .  S
C412        C413   1.404       .  A
C413        C414   1.403       .  A
C413        H417   1.084       .  S
C414        O418   1.372       .  S
O416        H420   0.992       .  S
O418        H419   0.992       .  S
C421        C422   1.406       .  A
C421        C426   1.413       .  A
C422        C423   1.399   1_455  A
C422        H427   1.083   1_455  S
C423        C424   1.413       .  A
C423        O428   1.371       .  S
C424        C425   1.409   1_655  A
C425        C426   1.405       .  A
C425        H429   1.083       .  S
C426        O430   1.371       .  S
O428        H432   0.992       .  S
O430        H431   0.992       .  S
C433        C434   1.408       .  A
C433        C438   1.415       .  A
C434        C435   1.400       .  A
C434        H439   1.083       .  S
C435        C436   1.408       .  A
C435        O440   1.372       .  S
C436        C437   1.402       .  A
C437        C438   1.405       .  A
C437        H441   1.084       .  S
C438        O442   1.371       .  S
O440        H444   0.992       .  S
O442        H443   0.992       .  S
C445        C446   1.406   1_556  A
C445        C450   1.414       .  A
C446        C447   1.400       .  A
C446        H451   1.083       .  S
C447        C448   1.415       .  A
C447        O452   1.371       .  S
C448        C449   1.407       .  A
C449        C450   1.403   1_554  A
C449        H453   1.083       .  S
C450        O454   1.371       .  S
O452        H456   0.992       .  S
O454        H455   0.992       .  S
C457        C458   1.405   1_655  A
C457        C462   1.415   1_556  A
C458        C459   1.400   1_556  A
C458        H463   1.083       .  S
C459        C460   1.415       .  A
C459        O464   1.370       .  S
C460        C461   1.408       .  A
C461        C462   1.403   1_455  A
C461        H465   1.083   1_455  S
C462        O466   1.371       .  S
O464        H468   0.992       .  S
O466        H467   0.992   1_554  S
C469        C470   1.404       .  A
C469        C474   1.410       .  A
C470        C471   1.400       .  A
C470        H475   1.084       .  S
C471        C472   1.412       .  A
C471        O476   1.371       .  S
C472        C473   1.406       .  A
C473        C474   1.402       .  A
C473        H477   1.083       .  S
C474        O478   1.372       .  S
O476        H480   0.992       .  S
O478        H479   0.992       .  S
