geometry optimzed in LAMMPS
_audit_creation_date              2020-11-30 
_audit_creation_method            'lammps2cif' 
_symmetry_space_group_name_H-M    'P1' 
_symmetry_Int_Tables_number       1 
_symmetry_cell_setting            triclinic 
loop_ 
_symmetry_equiv_pos_as_xyz 
  x,y,z 
_cell_length_a                    28.05410746 
_cell_length_b                    38.934753672402614 
_cell_length_c                    33.85109415545313 
_cell_angle_alpha                 89.22349803102612 
_cell_angle_beta                  89.4782286517883 
_cell_angle_gamma                 89.82444047591837 
loop_ 
_atom_site_label 
_atom_site_type_symbol 
_atom_site_fract_x 
_atom_site_fract_y 
_atom_site_fract_z 
_atom_site_charge 
N1          N  0.00327840  0.04206986  0.45570743    -0.35300
N2          N  0.07583925  0.49814559  0.99327502    -0.55800
N3          N  0.00151563  0.46308606  0.03923422    -0.35300
N4          N  0.92887239  0.50762339  0.00276302    -0.55800
C5          C  0.04361906  0.05889293  0.44473165     0.28300
C6          C  0.96645923  0.06422104  0.44994391     0.30300
C7          C  0.03905041  0.44209007  0.04736740     0.28300
C8          C  0.96132850  0.44608331  0.05044783     0.28300
C9          C  0.10446033  0.01610963  0.46772703     0.36900
C10         C  0.10342610  0.47343472  0.01003684     0.36900
C11         C  0.90126761  0.03099521  0.48344289     0.36900
C12         C  0.89966816  0.48785359  0.02554547     0.36900
C13         C  0.03215808  0.09177400  0.43161513    -0.20500
C14         C  0.98375853  0.09519772  0.43516060    -0.20500
C15         C  0.02241101  0.41179442  0.06443433    -0.20500
C16         C  0.97371981  0.41425146  0.06627977    -0.20500
C17         C  0.15034314  0.00288949  0.46874508    -0.21600
C18         C  0.14946062  0.47562218  0.99486204    -0.21600
C19         C  0.85393693  0.02574358  0.49396629    -0.21600
C20         C  0.85339127  0.50028397  0.02337776    -0.21600
C21         C  0.09079132  0.04593835  0.44608577    -0.17000
C22         C  0.91756565  0.05776090  0.45795160    -0.17000
C23         C  0.91351206  0.45784807  0.04693386    -0.16900
C24         C  0.08780899  0.44813027  0.03782815    -0.16900
H25         H  0.05629194  0.11172613  0.42146926     0.16000
H26         H  0.96386328  0.11838422  0.42855285     0.16000
H27         H  0.04292532  0.38943025  0.07319222     0.16000
H28         H  0.95010387  0.39427367  0.07719184     0.16000
H29         H  0.18125300  0.01155630  0.45212792     0.14200
H30         H  0.17992918  0.45971282  0.00199991     0.14200
H31         H  0.82283906  0.03965715  0.48384842     0.14200
H32         H  0.82195896  0.49064823  0.03850741     0.14200
H33         H  0.00074726  0.01623689  0.46356970     0.27500
H34         H  0.00340283  0.48828267  0.02897201     0.27500
O35         O  0.21512666  0.30332710  0.09222151    -0.56500
C36         C  0.32077944  0.39332808  0.15408255     0.76200
O37         O  0.16991125  0.38428824  0.14330389    -0.57600
C38         C  0.25373562  0.29931125  0.07322605     0.76100
C39         C  0.23974587  0.30199573  0.20236582     0.78500
Cd40       Cd  0.24327950  0.34836703  0.13501626     1.37500
O41         O  0.31958518  0.37790040  0.12146188    -0.56500
O42         O  0.27778324  0.31143626  0.18529302    -0.55300
C43         C  0.16806350  0.39394600  0.10745231     0.78500
O44         O  0.20133210  0.31409112  0.18834923    -0.57600
O45         O  0.28524253  0.38920602  0.17697614    -0.56100
O46         O  0.28863275  0.31763017  0.08338356    -0.56100
O47         O  0.20093477  0.38309346  0.08506520    -0.55300
O48         O  0.34515249  0.12495931  0.39668227    -0.56500
C49         C  0.27027330  0.20246547  0.45469374     0.76200
O50         O  0.21870019  0.18283863  0.34057914    -0.57600
C51         C  0.34165649  0.11011363  0.36377301     0.76100
C52         C  0.19895509  0.10427845  0.42528240     0.78500
Cd53       Cd  0.26602659  0.15317608  0.39287019     1.37500
O54         O  0.30813824  0.18772489  0.44299178    -0.56500
O55         O  0.23626349  0.11294564  0.44318277    -0.55300
C56         C  0.25256131  0.20254355  0.33001533     0.78500
O57         O  0.19242158  0.11773993  0.39140008    -0.57600
O58         O  0.23199189  0.19374723  0.43820343    -0.56100
O59         O  0.30326798  0.11477924  0.34508797    -0.56100
O60         O  0.29151854  0.19868541  0.34805418    -0.55300
N61         N  0.49555919  0.45795939  0.21197661    -0.35300
N62         N  0.57757281  0.99732670  0.25718181    -0.55800
N63         N  0.50419390  0.04062454  0.29409714    -0.35300
N64         N  0.43099818  0.00471828  0.25169038    -0.55800
C65         C  0.53392970  0.43850968  0.20188475     0.28300
C66         C  0.45600584  0.43872418  0.20581046     0.28300
C67         C  0.54413936  0.05794704  0.30364010     0.28300
C68         C  0.46690812  0.06234703  0.29977978     0.28300
C69         C  0.59909054  0.47303920  0.23235003     0.36900
C70         C  0.60572915  0.01557883  0.28148064     0.36900
C71         C  0.39409255  0.47779054  0.23489179     0.36900
C72         C  0.40236150  0.02731699  0.27061507     0.36900
C73         C  0.51840633  0.40696288  0.18855198    -0.20500
C74         C  0.46960645  0.40700610  0.19127467    -0.20500
C75         C  0.53204504  0.09085559  0.31547684    -0.20500
C76         C  0.48351769  0.09368478  0.31279389    -0.20500
C77         C  0.64615044  0.47672428  0.24388334    -0.21600
C78         C  0.65192860  0.00294710  0.27992061    -0.21600
C79         C  0.34715880  0.48754310  0.24172315    -0.21600
C80         C  0.35494139  0.02017869  0.26309731    -0.21600
C81         C  0.58281503  0.44700836  0.20672237    -0.17000
C82         C  0.40787900  0.44833652  0.21357895    -0.17000
C83         C  0.41814080  0.05486866  0.29383857    -0.16900
C84         C  0.59136145  0.04511105  0.30274139    -0.16900
H85         H  0.53998807  0.38529478  0.17961272     0.16000
H86         H  0.44697019  0.38548288  0.18445398     0.16000
H87         H  0.55580928  0.11108606  0.32449938     0.16000
H88         H  0.46299460  0.11656057  0.31913336     0.16000
H89         H  0.67703759  0.46226929  0.23434269     0.14200
H90         H  0.68258765  0.01160415  0.29611687     0.14200
H91         H  0.31506177  0.47553718  0.23111593     0.14200
H92         H  0.32354335  0.03327547  0.27405801     0.14200
H93         H  0.49640274  0.48346802  0.22048396     0.27500
H94         H  0.50235347  0.01461366  0.28776125     0.27500
O95         O  0.81166823  0.38619940  0.10156522    -0.56500
C96         C  0.75074553  0.30489453  0.16832243     0.76200
O97         O  0.65798663  0.38161932  0.09990431    -0.57600
C98         C  0.80435075  0.39973800  0.06785965     0.76100
C99         C  0.73264923  0.29830040  0.04523471     0.78500
Cd100      Cd  0.73694945  0.35197941  0.10327085     1.37500
O101        O  0.78335806  0.32622586  0.15925024    -0.56500
O102        O  0.77062871  0.30708348  0.06220001    -0.55300
C103        C  0.66068390  0.39491288  0.13378318     0.78500
O104        O  0.69534351  0.31505626  0.05435391    -0.57600
O105        O  0.71326951  0.30634887  0.14789937    -0.56100
O106        O  0.76592640  0.39173532  0.05111248    -0.56100
O107        O  0.69856663  0.38901038  0.15273025    -0.55300
O108        O  0.68849383  0.11776785  0.35734155    -0.56500
C109        C  0.74015857  0.20282805  0.41741913     0.76200
O110        O  0.84308059  0.12722277  0.35357347    -0.57600
C111        C  0.69833359  0.10319887  0.32495840     0.76100
C112        C  0.76326759  0.20215653  0.29265730     0.78500
Cd113      Cd  0.76201061  0.15344139  0.35705829     1.37500
O114        O  0.71804642  0.17447049  0.41641646    -0.56500
O115        O  0.72521050  0.18986482  0.30733871    -0.55300
C116        C  0.84100149  0.11369723  0.38777447     0.78500
O117        O  0.80210437  0.19121886  0.30723319    -0.57600
O118        O  0.77150271  0.20777142  0.39090610    -0.56100
O119        O  0.73753712  0.11106913  0.30866486    -0.56100
O120        O  0.80326788  0.11900512  0.40744964    -0.55300
C121        C  0.79831957  0.27367023  0.22060973    -0.12000
C122        C  0.75518508  0.27915699  0.20063043     0.10100
C123        C  0.71545945  0.25898547  0.21100412    -0.12000
C124        C  0.71853319  0.23396143  0.24064272    -0.12000
C125        C  0.76153424  0.22819753  0.26052821     0.10100
C126        C  0.80153302  0.24820963  0.25024492    -0.12000
H127        H  0.82951014  0.28882070  0.21314742     0.14100
H128        H  0.68170160  0.26253832  0.19619998     0.14100
H129        H  0.68709189  0.21899424  0.24790440     0.14100
H130        H  0.83502217  0.24443760  0.26538005     0.14100
C131        C  0.74765224  0.26262268  0.44236616    -0.12000
C132        C  0.73098228  0.22888653  0.44800671     0.10100
C133        C  0.70797753  0.22013715  0.48373158    -0.12000
C134        C  0.69065431  0.25701491  0.00018438    -0.12000
C135        C  0.73293488  0.27004829  0.01627635     0.10100
C136        C  0.77672256  0.25585443  0.00436955    -0.12000
H137        H  0.76523479  0.27016831  0.41499362     0.14100
H138        H  0.69485985  0.19431288  0.48887104     0.14100
H139        H  0.65635366  0.26729358  0.00908700     0.14100
H140        H  0.80992806  0.26504141  0.01634645     0.14100
C141        C  0.62169019  0.41624544  0.15031538    -0.15100
C142        C  0.61995341  0.42399361  0.18898176    -0.30300
H143        H  0.59400488  0.42557713  0.13064089     0.13900
H144        H  0.64769490  0.41402380  0.20817060     0.14500
C145        C  0.62754478  0.06559389  0.32420276    -0.15100
C146        C  0.66583147  0.07902775  0.30579395    -0.30300
H147        H  0.61946099  0.07292500  0.35440802     0.13900
H148        H  0.67290150  0.07293221  0.27506347     0.14500
C149        C  0.38038421  0.08839857  0.34807843    -0.15100
C150        C  0.38103511  0.07846885  0.31015502    -0.30300
H151        H  0.40878223  0.08050355  0.36785756     0.13900
H152        H  0.35215909  0.08645494  0.29090159     0.14500
C153        C  0.36180112  0.41483894  0.16471937    -0.15100
C154        C  0.36860042  0.42480399  0.20207159    -0.30300
H155        H  0.38716721  0.42221611  0.14172557     0.13900
H156        H  0.34270641  0.41750460  0.22473297     0.14500
C157        C  0.19988189  0.26258139  0.25226919    -0.12000
C158        C  0.24132917  0.27786258  0.23645654     0.10100
C159        C  0.28570531  0.26897856  0.25259301    -0.12000
C160        C  0.28889243  0.24482611  0.28315306    -0.12000
C161        C  0.24781687  0.22870972  0.29826667     0.10100
C162        C  0.20314030  0.23799672  0.28285705    -0.12000
H163        H  0.16520470  0.26910364  0.24049906     0.14100
H164        H  0.31828682  0.28046257  0.24129305     0.14100
H165        H  0.32380211  0.23836660  0.29452694     0.14100
H166        H  0.17087061  0.22620633  0.29433749     0.14100
C167        C  0.22382685  0.26564016  0.52895590    -0.12000
C168        C  0.25712139  0.27474269  0.04068008     0.10100
C169        C  0.30136129  0.26197008  0.02765719    -0.12000
C170        C  0.30345720  0.23775087  0.99747154    -0.12000
C171        C  0.26975258  0.22869093  0.48570957     0.10100
C172        C  0.22575688  0.24044974  0.50030002    -0.12000
H173        H  0.18922035  0.27402653  0.53957337     0.14100
H174        H  0.33410756  0.27022069  0.04126796     0.14100
H175        H  0.33781045  0.22781808  0.98817909     0.14100
H176        H  0.19255395  0.23011332  0.48960666     0.14100
C177        C  0.88099449  0.08210397  0.44175755    -0.15100
C178        C  0.88011429  0.09222790  0.40354803    -0.30300
H179        H  0.85257884  0.09053419  0.46138588     0.13900
H180        H  0.90795540  0.08391902  0.38328591     0.14500
C181        C  0.87613059  0.43652294  0.06731254    -0.15100
C182        C  0.83872965  0.42325382  0.04826660    -0.30300
H183        H  0.88199085  0.42924705  0.09799489     0.13900
H184        H  0.83344713  0.42947895  0.01722276     0.14500
C185        C  0.12462706  0.42374930  0.05371316    -0.15100
C186        C  0.12970443  0.41681881  0.09259815    -0.30300
H187        H  0.14940708  0.41224416  0.03287815     0.13900
H188        H  0.10535100  0.42825045  0.11384511     0.14500
C189        C  0.12798396  0.06670550  0.42496271    -0.15100
C190        C  0.16499131  0.08020060  0.44413809    -0.30300
H191        H  0.12174438  0.07406015  0.39435193     0.13900
H192        H  0.17001119  0.07397519  0.47521597     0.14500
N193        N  0.99953845  0.03626076  0.95791587    -0.35300
N194        N  0.07092956  0.49751000  0.49961734    -0.55800
N195        N  0.99767604  0.45715591  0.54043267    -0.35300
N196        N  0.92441079  0.49876780  0.50299097    -0.55800
C197        C  0.03826501  0.05617746  0.95105470     0.28300
C198        C  0.96068007  0.05650740  0.95287188     0.30300
C199        C  0.03701100  0.44729970  0.56062807     0.28300
C200        C  0.95897813  0.44792354  0.56231034     0.28300
C201        C  0.10025280  0.01421199  0.97101858     0.36900
C202        C  0.09779224  0.47127262  0.51385680     0.36900
C203        C  0.89944354  0.01450143  0.97464179     0.36900
C204        C  0.89695423  0.47361021  0.51892356     0.36900
C205        C  0.02391855  0.08938057  0.94168249    -0.20500
C206        C  0.97495196  0.08967264  0.94319767    -0.20500
C207        C  0.02297498  0.43144808  0.59581746    -0.20500
C208        C  0.97386881  0.43231349  0.59711346    -0.20500
C209        C  0.14445195  0.99855895  0.96758068    -0.21600
C210        C  0.14189645  0.47111216  0.49494279    -0.21600
C211        C  0.85448226  0.99994186  0.97326848    -0.21600
C212        C  0.85173323  0.47479900  0.50262650    -0.21600
C213        C  0.08601331  0.04464691  0.95085472    -0.17000
C214        C  0.91286258  0.04513597  0.95489934    -0.17000
C215        C  0.91084187  0.45152358  0.55030822    -0.16900
C216        C  0.08449221  0.44931082  0.54582669    -0.16900
H217        H  0.04640995  0.11120702  0.93467152     0.16000
H218        H  0.95256460  0.11187357  0.93773938     0.16000
H219        H  0.04530456  0.41987827  0.61818879     0.16000
H220        H  0.95177509  0.42204283  0.62079341     0.16000
H221        H  0.17376122  0.00597843  0.94833987     0.14200
H222        H  0.17151389  0.45383862  0.50023126     0.14200
H223        H  0.82456040  0.00812964  0.95547449     0.14200
H224        H  0.82172368  0.45826244  0.50937476     0.14200
H225        H  0.99953140  0.00976746  0.96138905     0.27500
H226        H  0.99721802  0.46574941  0.51121331     0.27500
O227        O  0.22317840  0.31178455  0.59203320    -0.56500
C228        C  0.33049209  0.39876191  0.65386502     0.76200
O229        O  0.18417711  0.39611278  0.64794185    -0.57600
C230        C  0.26239640  0.30602976  0.57457767     0.76100
C231        C  0.24538272  0.30569425  0.70080532     0.78500
Cd232      Cd  0.25170760  0.35521886  0.63600019     1.37500
O233        O  0.32641892  0.38620080  0.61978777    -0.56500
O234        O  0.28417122  0.31600015  0.68567516    -0.55300
C235        C  0.17681535  0.40268494  0.61175891     0.78500
O236        O  0.20778719  0.31910558  0.68680125    -0.57600
O237        O  0.29743273  0.39225246  0.67850496    -0.56100
O238        O  0.29781029  0.32365032  0.58521869    -0.56100
O239        O  0.20419356  0.38799882  0.58736600    -0.55300
O240        O  0.33861137  0.12267634  0.89250962    -0.56500
C241        C  0.26237352  0.20075893  0.94811992     0.76200
O242        O  0.21483901  0.18125103  0.83334526    -0.57600
C243        C  0.33498343  0.10695194  0.86015682     0.76100
C244        C  0.19467511  0.10117305  0.92299919     0.78500
Cd245      Cd  0.25952262  0.15067181  0.88743235     1.37500
O246        O  0.29959702  0.18378160  0.93937287    -0.56500
O247        O  0.23237337  0.11090775  0.93952076    -0.55300
C248        C  0.25008021  0.19985360  0.82301975     0.78500
O249        O  0.18637832  0.11392609  0.88898548    -0.57600
O250        O  0.22520442  0.19431920  0.92871486    -0.56100
O251        O  0.29681789  0.11145504  0.84107880    -0.56100
O252        O  0.28842652  0.19473591  0.84161122    -0.55300
N253        N  0.50622707  0.45980287  0.71462889    -0.35300
N254        N  0.57015128  0.99613625  0.75121785    -0.55800
N255        N  0.49683594  0.03670430  0.79106459    -0.35300
N256        N  0.42300509  0.99856026  0.75112057    -0.55800
C257        C  0.54450265  0.43981510  0.70574717     0.28300
C258        C  0.46667154  0.44096658  0.70753814     0.28300
C259        C  0.53644593  0.05500442  0.79918833     0.28300
C260        C  0.45904972  0.05793762  0.79664876     0.28300
C261        C  0.60858426  0.47356899  0.73806698     0.36900
C262        C  0.59819744  0.01356523  0.77644830     0.36900
C263        C  0.40385550  0.48026784  0.73533509     0.36900
C264        C  0.39454082  0.02073858  0.77083038     0.36900
C265        C  0.52891844  0.40832956  0.69229695    -0.20500
C266        C  0.48010409  0.40900383  0.69356082    -0.20500
C267        C  0.52373289  0.08803028  0.80995416    -0.20500
C268        C  0.47504742  0.08997576  0.80801505    -0.20500
C269        C  0.65519628  0.47739684  0.75056896    -0.21600
C270        C  0.64405642  0.00039852  0.77545236    -0.21600
C271        C  0.35657650  0.48862872  0.74311475    -0.21600
C272        C  0.34705706  0.01246363  0.76527723    -0.21600
C273        C  0.59323772  0.44783628  0.71174910    -0.17000
C274        C  0.41858635  0.45093742  0.71424346    -0.17000
C275        C  0.41037852  0.04932896  0.79233809    -0.16900
C276        C  0.58385153  0.04272486  0.79826813    -0.16900
H277        H  0.55037063  0.38633391  0.68421732     0.16000
H278        H  0.45722097  0.38775278  0.68619273     0.16000
H279        H  0.54719707  0.10884250  0.81774562     0.16000
H280        H  0.45398802  0.11270175  0.81385340     0.16000
H281        H  0.68636631  0.46292303  0.74168821     0.14200
H282        H  0.67443038  0.00820378  0.79255552     0.14200
H283        H  0.32489972  0.47555549  0.73332000     0.14200
H284        H  0.31577445  0.02516201  0.77707208     0.14200
H285        H  0.50702687  0.48537411  0.72292143     0.27500
H286        H  0.49561978  0.01044420  0.78587531     0.27500
O287        O  0.82874442  0.35004764  0.60334888    -0.56500
C288        C  0.75105606  0.29717797  0.67554954     0.76200
O289        O  0.66890359  0.38314028  0.60435457    -0.57600
C290        C  0.82815417  0.38137577  0.59297210     0.76100
C291        C  0.72392021  0.30167465  0.54246659     0.78500
Cd292      Cd  0.74078557  0.34486640  0.61087143     1.37500
O293        O  0.78619416  0.31508306  0.66373530    -0.56500
O294        O  0.73978590  0.33192295  0.53877826    -0.55300
C295        C  0.66910428  0.39293188  0.63990472     0.78500
O296        O  0.71212764  0.29249692  0.57708521    -0.57600
O297        O  0.71211875  0.30183799  0.65764687    -0.56100
O298        O  0.78773816  0.39591445  0.59243736    -0.56100
O299        O  0.70213076  0.38099869  0.66121954    -0.55300
O300        O  0.68476569  0.10820087  0.86080394    -0.56500
C301        C  0.74102986  0.19239165  0.92705688     0.76200
O302        O  0.83886821  0.12199406  0.85808829    -0.57600
C303        C  0.69281110  0.09766084  0.82602984     0.76100
C304        C  0.76074891  0.19605107  0.80107421     0.78500
Cd305      Cd  0.75689891  0.14542737  0.86263224     1.37500
O306        O  0.70792458  0.17206604  0.91744878    -0.56500
O307        O  0.72256456  0.18695005  0.81831151    -0.55300
C308        C  0.83513108  0.10335715  0.88886662     0.78500
O309        O  0.79888613  0.18161394  0.81252638    -0.57600
O310        O  0.77936740  0.19027753  0.90737205    -0.56100
O311        O  0.73070423  0.10806927  0.80944288    -0.56100
O312        O  0.79527090  0.10375062  0.90670459    -0.55300
C313        C  0.79858615  0.26405060  0.72598057    -0.12000
C314        C  0.75466447  0.27185910  0.70821072     0.10100
C315        C  0.71349490  0.25465356  0.72133774    -0.12000
C316        C  0.71597316  0.23013987  0.75148771    -0.12000
C317        C  0.75971080  0.22201831  0.76909556     0.10100
C318        C  0.80115194  0.23908607  0.75612658    -0.12000
H319        H  0.83086591  0.27698985  0.71637232     0.14100
H320        H  0.67915965  0.26007948  0.70824291     0.14100
H321        H  0.68349105  0.21728698  0.76080027     0.14100
H322        H  0.83526336  0.23334885  0.76945288     0.14100
C323        C  0.77857386  0.23018908  0.97615419    -0.12000
C324        C  0.73671517  0.21757247  0.95930665     0.10100
C325        C  0.69250499  0.23074323  0.97203939    -0.12000
C326        C  0.70380659  0.24426174  0.51395495    -0.12000
C327        C  0.72202380  0.27769742  0.50880313     0.10100
C328        C  0.74297598  0.28680830  0.47232066    -0.12000
H329        H  0.81313399  0.22037013  0.96720278     0.14100
H330        H  0.65968372  0.22150096  0.95943619     0.14100
H331        H  0.68762312  0.23642674  0.54179471     0.14100
H332        H  0.75747723  0.31227550  0.46744225     0.14100
C333        C  0.63251390  0.41673882  0.65579175    -0.15100
C334        C  0.63046219  0.42458750  0.69449220    -0.30300
H335        H  0.60631096  0.42749956  0.63564870     0.13900
H336        H  0.65715467  0.41391557  0.71422061     0.14500
C337        C  0.61956815  0.06267045  0.82109373    -0.15100
C338        C  0.65986772  0.07507154  0.80472720    -0.30300
H339        H  0.60999346  0.07000663  0.85100423     0.13900
H340        H  0.66824752  0.06952771  0.77406649     0.14500
C341        C  0.37331871  0.08446897  0.84541570    -0.15100
C342        C  0.37321054  0.07303581  0.80811213    -0.30300
H343        H  0.40208871  0.07739273  0.86522558     0.13900
H344        H  0.34391159  0.08011355  0.78884295     0.14500
C345        C  0.37180041  0.41978945  0.66447301    -0.15100
C346        C  0.38012504  0.42724721  0.70234083    -0.30300
H347        H  0.39559543  0.42919160  0.64127351     0.13900
H348        H  0.35592428  0.41796031  0.72533995     0.14500
C349        C  0.20257475  0.26413951  0.74684833    -0.12000
C350        C  0.24511754  0.27905611  0.73260617     0.10100
C351        C  0.28864674  0.26746806  0.74815811    -0.12000
C352        C  0.28982582  0.24170006  0.77716406    -0.12000
C353        C  0.24753765  0.22653357  0.79134726     0.10100
C354        C  0.20379155  0.23796889  0.77588535    -0.12000
H355        H  0.16850195  0.27248213  0.73533967     0.14100
H356        H  0.32209677  0.27831403  0.73785157     0.14100
H357        H  0.32412066  0.23355057  0.78842462     0.14100
H358        H  0.17060475  0.22692374  0.78647382     0.14100
C359        C  0.21529590  0.26370252  0.02248225    -0.12000
C360        C  0.26582453  0.27990546  0.54360769     0.10100
C361        C  0.31008789  0.26841386  0.52902029    -0.12000
C362        C  0.31204897  0.24278630  0.50033644    -0.12000
C363        C  0.26138960  0.22656129  0.97954313     0.10100
C364        C  0.21742084  0.24006110  0.99207217    -0.12000
H365        H  0.18079848  0.27345233  0.03169746     0.14100
H366        H  0.34300685  0.27897792  0.54000022     0.14100
H367        H  0.34642789  0.23422451  0.48941938     0.14100
H368        H  0.18442099  0.23199742  0.97872125     0.14100
C369        C  0.87379372  0.06716985  0.93908246    -0.15100
C370        C  0.87537177  0.08241786  0.90326542    -0.30300
H371        H  0.84163182  0.06948357  0.95701400     0.13900
H372        H  0.90673006  0.07976832  0.88447869     0.14500
C373        C  0.87167107  0.43336297  0.57215996    -0.15100
C374        C  0.87207854  0.39947482  0.58029645    -0.30300
H375        H  0.83893554  0.44769267  0.57730514     0.13900
H376        H  0.90389094  0.38433067  0.57449425     0.14500
C377        C  0.12158984  0.42531089  0.56149143    -0.15100
C378        C  0.13819744  0.42611475  0.59865820    -0.30300
H379        H  0.13767064  0.40765508  0.54061470     0.13900
H380        H  0.12299281  0.44392935  0.61975600     0.14500
C381        C  0.12127609  0.06598200  0.92804006    -0.15100
C382        C  0.16245159  0.07663572  0.94355418    -0.30300
H383        H  0.11062745  0.07602599  0.89932507     0.13900
H384        H  0.17201170  0.06825262  0.97319213     0.14500
N385        N  0.99689456  0.53663100  0.45926689    -0.35300
N386        N  0.07324696  0.99732701  0.99839413    -0.55800
N387        N  0.99968980  0.95564219  0.03806390    -0.35300
N388        N  0.92693456  0.99730785  0.00089896    -0.55800
C389        C  0.03594050  0.55602042  0.45182896     0.28300
C390        C  0.95841981  0.55729064  0.45447458     0.30300
C391        C  0.03902312  0.94565586  0.05814189     0.28300
C392        C  0.96098485  0.94598090  0.05979839     0.28300
C393        C  0.09759266  0.51371524  0.47151037     0.36900
C394        C  0.10009291  0.97094040  0.01229100     0.36900
C395        C  0.89667343  0.51607183  0.47696744     0.36900
C396        C  0.89938869  0.97204301  0.01649872     0.36900
C397        C  0.02225549  0.58936969  0.44254009    -0.20500
C398        C  0.97333191  0.59027751  0.44464085    -0.20500
C399        C  0.02499983  0.92906079  0.09290264    -0.20500
C400        C  0.97591941  0.92979452  0.09422503    -0.20500
C401        C  0.14163428  0.49784670  0.46801078    -0.21600
C402        C  0.14449576  0.97133565  0.99385563    -0.21600
C403        C  0.85154278  0.50174097  0.47614403    -0.21600
C404        C  0.85444619  0.97302801  0.99972926    -0.21600
C405        C  0.08334154  0.54386539  0.45083204    -0.17000
C406        C  0.91038563  0.54640373  0.45665659    -0.17000
C407        C  0.91281384  0.95008789  0.04808343    -0.16900
C408        C  0.08657462  0.94835094  0.04365743    -0.16900
H409        H  0.04517969  0.61086546  0.43513286     0.16000
H410        H  0.95140076  0.61274461  0.43936736     0.16000
H411        H  0.04729525  0.91717209  0.11507452     0.16000
H412        H  0.95393667  0.91916855  0.11776128     0.16000
H413        H  0.17072743  0.50488340  0.44835713     0.14200
H414        H  0.17416021  0.95407805  0.99902751     0.14200
H415        H  0.82142619  0.51000603  0.45862386     0.14200
H416        H  0.82447964  0.95636231  0.00616793     0.14200
H417        H  0.99642929  0.51000835  0.46277692     0.27500
H418        H  0.99941934  0.96479458  0.00922517     0.27500
O419        O  0.22464717  0.81037136  0.09217479    -0.56500
C420        C  0.33022950  0.89933609  0.15177281     0.76200
O421        O  0.18685197  0.89690322  0.14659964    -0.57600
C422        C  0.26341329  0.80557253  0.07367147     0.76100
C423        C  0.24779009  0.80501384  0.19976962     0.78500
Cd424      Cd  0.25273082  0.85450410  0.13496099     1.37500
O425        O  0.32623240  0.88667901  0.11771459    -0.56500
O426        O  0.28654703  0.81589348  0.18510809    -0.55300
C427        C  0.17736341  0.90122347  0.11035644     0.78500
O428        O  0.21004927  0.81789400  0.18540071    -0.57600
O429        O  0.29779195  0.89212788  0.17672308    -0.56100
O430        O  0.29852415  0.82396490  0.08336069    -0.56100
O431        O  0.20227038  0.88419088  0.08625938    -0.55300
O432        O  0.33636080  0.62289469  0.39302380    -0.56500
C433        C  0.25854854  0.69980243  0.44785839     0.76200
O434        O  0.21360470  0.68193986  0.33282845    -0.57600
C435        C  0.33416674  0.60723120  0.36052984     0.76100
C436        C  0.19132308  0.60043539  0.42163939     0.78500
Cd437      Cd  0.25679522  0.64999274  0.38655641     1.37500
O438        O  0.29559192  0.68252784  0.43939975    -0.56500
O439        O  0.22754882  0.61169207  0.43902416    -0.55300
C440        C  0.25004285  0.69899219  0.32176402     0.78500
O441        O  0.18466904  0.61148983  0.38659913    -0.57600
O442        O  0.22179451  0.69417552  0.42756636    -0.56100
O443        O  0.29622650  0.61094281  0.34092245    -0.56100
O444        O  0.28834614  0.69241206  0.33979831    -0.55300
N445        N  0.50408527  0.96115440  0.21418396    -0.35300
N446        N  0.57134290  0.49608741  0.25155972    -0.55800
N447        N  0.49919050  0.53701955  0.29252114    -0.35300
N448        N  0.42398242  0.49951250  0.25311571    -0.55800
C449        C  0.54210558  0.94057098  0.20649176     0.28300
C450        C  0.46434240  0.94263681  0.20677345     0.28300
C451        C  0.53922823  0.55437949  0.30191219     0.28300
C452        C  0.46175980  0.55835702  0.29943418     0.28300
C453        C  0.60604145  0.97379990  0.23948759     0.36900
C454        C  0.60057265  0.51392348  0.27549180     0.36900
C455        C  0.40187411  0.98310169  0.23256231     0.36900
C456        C  0.39619873  0.52279304  0.27173938     0.36900
C457        C  0.52623977  0.90897126  0.19365290    -0.20500
C458        C  0.47742669  0.91020798  0.19398894    -0.20500
C459        C  0.52706530  0.58680151  0.31519688    -0.20500
C460        C  0.47845163  0.58942846  0.31325947    -0.20500
C461        C  0.65237634  0.97714280  0.25282191    -0.21600
C462        C  0.64681541  0.50178651  0.27179949    -0.21600
C463        C  0.35464916  0.99248984  0.23875568    -0.21600
C464        C  0.34847152  0.51579674  0.26518242    -0.21600
C465        C  0.59082528  0.94829538  0.21283664    -0.17000
C466        C  0.41636957  0.95342559  0.21202482    -0.17000
C467        C  0.41283353  0.55096076  0.29363854    -0.16900
C468        C  0.58669536  0.54217826  0.29910952    -0.16900
H469        H  0.54749725  0.88661726  0.18654515     0.16000
H470        H  0.45429141  0.88905850  0.18677108     0.16000
H471        H  0.55086289  0.60696080  0.32436529     0.16000
H472        H  0.45796774  0.61208836  0.32056186     0.16000
H473        H  0.68345376  0.96227119  0.24464584     0.14200
H474        H  0.67815725  0.50996285  0.28741243     0.14200
H475        H  0.32298327  0.98026433  0.22761863     0.14200
H476        H  0.31752345  0.52949188  0.27606224     0.14200
H477        H  0.50526105  0.98691973  0.22170269     0.27500
H478        H  0.49752054  0.51124140  0.28512071     0.27500
O479        O  0.82670800  0.85193206  0.10563575    -0.56500
C480        C  0.74766552  0.79834380  0.17317898     0.76200
O481        O  0.66477810  0.88384741  0.10447022    -0.57600
C482        C  0.82707248  0.88245103  0.09231607     0.76100
C483        C  0.72528276  0.80525026  0.03910289     0.78500
Cd484      Cd  0.73859415  0.84714667  0.10940197     1.37500
O485        O  0.78147567  0.81857841  0.16420716    -0.56500
O486        O  0.74517502  0.83433178  0.03729600    -0.55300
C487        C  0.66656316  0.89463600  0.13958159     0.78500
O488        O  0.70799670  0.79681705  0.07241800    -0.57600
O489        O  0.71038300  0.80083977  0.15257324    -0.56100
O490        O  0.78687258  0.89704315  0.08865681    -0.56100
O491        O  0.70164472  0.88441388  0.15971458    -0.55300
O492        O  0.68539767  0.61014999  0.36015260    -0.56500
C493        C  0.74336987  0.69438146  0.42635938     0.76200
O494        O  0.83919389  0.62383193  0.35854116    -0.57600
C495        C  0.69454630  0.59860211  0.32597710     0.76100
C496        C  0.75822993  0.69827400  0.30000114     0.78500
Cd497      Cd  0.75724111  0.64753277  0.36200979     1.37500
O498        O  0.71045261  0.67337084  0.41820331    -0.56500
O499        O  0.72034501  0.68812059  0.31695947    -0.55300
C500        C  0.83472748  0.60541123  0.38947669     0.78500
O501        O  0.79696249  0.68501641  0.31197786    -0.57600
O502        O  0.78075099  0.69281986  0.40537450    -0.56100
O503        O  0.73286548  0.60864775  0.30972810    -0.56100
O504        O  0.79462181  0.60619907  0.40687115    -0.55300
C505        C  0.79467634  0.76651100  0.22475728    -0.12000
C506        C  0.75109777  0.77303154  0.20585989     0.10100
C507        C  0.71035530  0.75488175  0.21821978    -0.12000
C508        C  0.71296615  0.73079920  0.24893806    -0.12000
C509        C  0.75647993  0.72399958  0.26767747     0.10100
C510        C  0.79743211  0.74195317  0.25527934    -0.12000
H511        H  0.82662896  0.78015930  0.21573260     0.14100
H512        H  0.67628591  0.75938505  0.20424093     0.14100
H513        H  0.68087282  0.71722716  0.25778784     0.14100
H514        H  0.83136839  0.73722741  0.26937720     0.14100
C515        C  0.78127880  0.73594570  0.47113478    -0.12000
C516        C  0.73955458  0.72004411  0.45806195     0.10100
C517        C  0.69536151  0.73056209  0.47373123    -0.12000
C518        C  0.69834699  0.75091928  0.00667802    -0.12000
C519        C  0.72468207  0.78162593  0.00496404     0.10100
C520        C  0.75414638  0.78794783  0.97188292    -0.12000
H521        H  0.81589542  0.72827886  0.45981686     0.14100
H522        H  0.66265532  0.71875655  0.46405818     0.14100
H523        H  0.67538165  0.74528402  0.03180414     0.14100
H524        H  0.77510722  0.81122280  0.96973496     0.14100
C525        C  0.62948596  0.91763456  0.15630100    -0.15100
C526        C  0.62804500  0.92529313  0.19509113    -0.30300
H527        H  0.60242543  0.92796836  0.13666156     0.13900
H528        H  0.65543114  0.91487591  0.21431944     0.14500
C529        C  0.62315851  0.56157881  0.32182943    -0.15100
C530        C  0.66211872  0.57550212  0.30481990    -0.30300
H531        H  0.61476830  0.56764879  0.35236273     0.13900
H532        H  0.66954103  0.57103911  0.27375555     0.14500
C533        C  0.37372862  0.58552438  0.34633846    -0.15100
C534        C  0.37603920  0.57543407  0.30854140    -0.30300
H535        H  0.40104454  0.57755774  0.36710663     0.13900
H536        H  0.34826010  0.58359146  0.28827958     0.14500
C537        C  0.37086755  0.92111697  0.16218656    -0.15100
C538        C  0.37767520  0.93004714  0.19984914    -0.30300
H539        H  0.39553401  0.92962867  0.13916642     0.13900
H540        H  0.35243558  0.92176671  0.22257610     0.14500
C541        C  0.20509353  0.76150416  0.24289682    -0.12000
C542        C  0.24740708  0.77831336  0.23144599     0.10100
C543        C  0.29028298  0.76853056  0.24961304    -0.12000
C544        C  0.29089847  0.74265243  0.27859098    -0.12000
C545        C  0.24869124  0.72570122  0.29006594     0.10100
C546        C  0.20575122  0.73535045  0.27186135    -0.12000
H547        H  0.17158826  0.76834344  0.22920392     0.14100
H548        H  0.32352358  0.78092713  0.24144916     0.14100
H549        H  0.32459688  0.73595090  0.29207184     0.14100
H550        H  0.17266787  0.72283102  0.28015811     0.14100
C551        C  0.21191110  0.76068768  0.52490604    -0.12000
C552        C  0.26661652  0.77965225  0.04254666     0.10100
C553        C  0.31079475  0.76794679  0.02810302    -0.12000
C554        C  0.31257967  0.74236480  0.99940202    -0.12000
C555        C  0.25753505  0.72496886  0.47999202     0.10100
C556        C  0.21360751  0.73745994  0.49397529    -0.12000
H557        H  0.17750555  0.76982433  0.53514856     0.14100
H558        H  0.34377691  0.77823289  0.03929996     0.14100
H559        H  0.34692064  0.73355361  0.98867468     0.14100
H560        H  0.18042209  0.72898174  0.48128554     0.14100
C561        C  0.87170078  0.56853521  0.44015356    -0.15100
C562        C  0.87436747  0.58416686  0.40451927    -0.30300
H563        H  0.83904592  0.57080749  0.45745858     0.13900
H564        H  0.90615429  0.58151191  0.38624820     0.14500
C565        C  0.87299054  0.93304372  0.07043775    -0.15100
C566        C  0.87195708  0.89938664  0.07970932    -0.30300
H567        H  0.84070788  0.94806053  0.07494084     0.13900
H568        H  0.90323111  0.88345258  0.07480904     0.14500
C569        C  0.12368152  0.92445158  0.05933400    -0.15100
C570        C  0.13932349  0.92488521  0.09680560    -0.30300
H571        H  0.14018445  0.90703717  0.03841279     0.13900
H572        H  0.12392646  0.94275780  0.11775200     0.14500
C573        C  0.11847866  0.56444435  0.42702956    -0.15100
C574        C  0.15902014  0.57617389  0.44256795    -0.30300
H575        H  0.10805858  0.57327449  0.39775597     0.13900
H576        H  0.16787010  0.56902954  0.47277433     0.14500
N577        N  0.00327922  0.54268969  0.95709986    -0.35300
N578        N  0.07583111  0.99791632  0.49265763    -0.55800
N579        N  0.00189679  0.96403177  0.54007032    -0.35300
N580        N  0.92929086  0.00796098  0.50266488    -0.55800
C581        C  0.04362494  0.55930626  0.94561284     0.28300
C582        C  0.96638736  0.56475978  0.95113363     0.30300
C583        C  0.03924377  0.94289926  0.54826330     0.28300
C584        C  0.96178161  0.94781931  0.55287306     0.28300
C585        C  0.10420688  0.51596236  0.96774130     0.36900
C586        C  0.10355510  0.97359559  0.50998542     0.36900
C587        C  0.90116088  0.53196489  0.98544429     0.36900
C588        C  0.89993002  0.98818086  0.52527618     0.36900
C589        C  0.03209617  0.59206195  0.93210508    -0.20500
C590        C  0.98367029  0.59554282  0.93577295    -0.20500
C591        C  0.02251822  0.91336073  0.56703673    -0.20500
C592        C  0.97402787  0.91650963  0.57009117    -0.20500
C593        C  0.14966917  0.50198268  0.96767062    -0.21600
C594        C  0.14997748  0.97644535  0.49582393    -0.21600
C595        C  0.85417071  0.52771890  0.99764168    -0.21600
C596        C  0.85320828  0.99922417  0.52086616    -0.21600
C597        C  0.09077961  0.54611934  0.94653275    -0.17000
C598        C  0.91744577  0.55846348  0.95948574    -0.17000
C599        C  0.91402884  0.95937690  0.54863545    -0.16900
C600        C  0.08785811  0.94827687  0.53771036    -0.16900
H601        H  0.05616387  0.61185249  0.92142835     0.16000
H602        H  0.96371507  0.61862041  0.92877305     0.16000
H603        H  0.04271353  0.89098028  0.57622045     0.16000
H604        H  0.95037651  0.89714418  0.58238051     0.16000
H605        H  0.18021540  0.51006458  0.95021577     0.14200
H606        H  0.18066609  0.96105610  0.50378422     0.14200
H607        H  0.82333000  0.54278693  0.98931813     0.14200
H608        H  0.82147512  0.98928995  0.53526623     0.14200
H609        H  0.00077273  0.51695052  0.96530470     0.27500
H610        H  0.00382399  0.98875660  0.52840486     0.27500
O611        O  0.21368194  0.80132395  0.59417801    -0.56500
C612        C  0.32049188  0.89315178  0.65165930     0.76200
O613        O  0.16931311  0.88380998  0.64275757    -0.57600
C614        C  0.25156761  0.79733833  0.57422434     0.76100
C615        C  0.24025363  0.80323610  0.70315726     0.78500
Cd616      Cd  0.24262773  0.84799122  0.63444164     1.37500
O617        O  0.31884864  0.87736227  0.61926042    -0.56500
O618        O  0.27825265  0.81492110  0.68797607    -0.55300
C619        C  0.16756999  0.89348709  0.60691312     0.78500
O620        O  0.20173198  0.81266402  0.68691496    -0.57600
O621        O  0.28518654  0.88939828  0.67489393    -0.56100
O622        O  0.28648224  0.81624781  0.58290730    -0.56100
O623        O  0.20032392  0.88253751  0.58449297    -0.55300
O624        O  0.34717855  0.62544842  0.89636991    -0.56500
C625        C  0.27074803  0.70219316  0.95376023     0.76200
O626        O  0.22112632  0.68175188  0.83865791    -0.57600
C627        C  0.34353922  0.60954452  0.86414613     0.76100
C628        C  0.20045130  0.60325339  0.92460210     0.78500
Cd629      Cd  0.26737026  0.65270840  0.89213125     1.37500
O630        O  0.30869069  0.68743493  0.94229186    -0.56500
O631        O  0.23828425  0.61147578  0.94206960    -0.55300
C632        C  0.25424060  0.70258284  0.82945052     0.78500
O633        O  0.19325481  0.61743300  0.89119371    -0.57600
O634        O  0.23253837  0.69331605  0.93725156    -0.56100
O635        O  0.30506405  0.61360185  0.84540512    -0.56100
O636        O  0.29267167  0.69935562  0.84837449    -0.55300
N637        N  0.49585595  0.95786684  0.71020586    -0.35300
N638        N  0.58004578  0.49660848  0.75652062    -0.55800
N639        N  0.50642162  0.53866361  0.79538075    -0.35300
N640        N  0.43295825  0.50267345  0.75325665    -0.55800
C641        C  0.53466477  0.93891762  0.70000402     0.28300
C642        C  0.45668851  0.93855546  0.70293818     0.28300
C643        C  0.54627600  0.55590507  0.80540961     0.28300
C644        C  0.46890199  0.56001019  0.80204165     0.28300
C645        C  0.59840378  0.97246209  0.73360819     0.36900
C646        C  0.60838211  0.51491829  0.78061107     0.36900
C647        C  0.39375201  0.97621010  0.73320349     0.36900
C648        C  0.40434360  0.52476450  0.77297706     0.36900
C649        C  0.51979762  0.90764845  0.68537839    -0.20500
C650        C  0.47095553  0.90733943  0.68744439    -0.20500
C651        C  0.53386828  0.58825073  0.81886069    -0.20500
C652        C  0.48535944  0.59097296  0.81629795    -0.20500
C653        C  0.64453373  0.97511438  0.74777167    -0.21600
C654        C  0.65485879  0.50295812  0.77796763    -0.21600
C655        C  0.34654350  0.98454777  0.74126711    -0.21600
C656        C  0.35689872  0.51656259  0.76709330    -0.21600
C657        C  0.58330430  0.94732471  0.70638226    -0.17000
C658        C  0.40836951  0.94740905  0.71105716    -0.17000
C659        C  0.42009507  0.55252899  0.79591532    -0.16900
C660        C  0.59380767  0.54374515  0.80301469    -0.16900
H661        H  0.54180903  0.88627484  0.67621408     0.16000
H662        H  0.44872295  0.88583807  0.67973037     0.16000
H663        H  0.55742892  0.60833119  0.82861905     0.16000
H664        H  0.46485542  0.61365232  0.82346755     0.16000
H665        H  0.67551201  0.95999437  0.73999413     0.14200
H666        H  0.68569900  0.51183162  0.79377854     0.14200
H667        H  0.31476718  0.97179393  0.73116085     0.14200
H668        H  0.32554652  0.52895267  0.77919620     0.14200
H669        H  0.49617812  0.98306128  0.71981925     0.27500
H670        H  0.50492523  0.51293205  0.78775751     0.27500
O671        O  0.81232882  0.88746092  0.60309245    -0.56500
C672        C  0.75190829  0.80442983  0.66620023     0.76200
O673        O  0.66004034  0.88420513  0.59866745    -0.57600
C674        C  0.80604502  0.90056701  0.56900224     0.76100
C675        C  0.73419453  0.80138685  0.54290143     0.78500
Cd676      Cd  0.73787647  0.85320098  0.60276589     1.37500
O677        O  0.78535586  0.82469473  0.65607366    -0.56500
O678        O  0.77247270  0.81185752  0.55797725    -0.55300
C679        C  0.66246929  0.89690725  0.63287617     0.78500
O680        O  0.69605500  0.81583141  0.55456897    -0.57600
O681        O  0.71316561  0.80776348  0.64771472    -0.56100
O682        O  0.76811567  0.89257576  0.55152520    -0.56100
O683        O  0.69981780  0.89018644  0.65221032    -0.55300
O684        O  0.69078150  0.61704397  0.85687255    -0.56500
C685        C  0.74221418  0.70544376  0.91443457     0.76200
O686        O  0.84377632  0.62629063  0.85323351    -0.57600
C687        C  0.69933886  0.60368470  0.82354323     0.76100
C688        C  0.76572476  0.70117460  0.78984242     0.78500
Cd689      Cd  0.76335654  0.65391389  0.85562282     1.37500
O690        O  0.71730278  0.67835518  0.91250636    -0.56500
O691        O  0.72752919  0.68925875  0.80466770    -0.55300
C692        C  0.84098637  0.61303519  0.88754945     0.78500
O693        O  0.80443068  0.69055646  0.80498585    -0.57600
O694        O  0.77584499  0.70824888  0.88949403    -0.56100
O695        O  0.73725100  0.61292454  0.80611323    -0.56100
O696        O  0.80302866  0.61884591  0.90673474    -0.55300
C697        C  0.80026756  0.77242468  0.71732164    -0.12000
C698        C  0.75694893  0.77787836  0.69757703     0.10100
C699        C  0.71763890  0.75717007  0.70757627    -0.12000
C700        C  0.72114846  0.73195117  0.73696898    -0.12000
C701        C  0.76412272  0.72660722  0.75706639     0.10100
C702        C  0.80388282  0.74684473  0.74678351    -0.12000
H703        H  0.83118523  0.78793826  0.71008479     0.14100
H704        H  0.68382850  0.76055469  0.69280751     0.14100
H705        H  0.68993361  0.71670331  0.74412352     0.14100
H706        H  0.83737007  0.74334851  0.76200191     0.14100
C707        C  0.75877196  0.76352502  0.94210265    -0.12000
C708        C  0.73370659  0.73230726  0.94445046     0.10100
C709        C  0.70257058  0.72660835  0.97660227    -0.12000
C710        C  0.69310478  0.75731412  0.50116782    -0.12000
C711        C  0.73505507  0.77349839  0.51361915     0.10100
C712        C  0.77908921  0.76219612  0.49859116    -0.12000
H713        H  0.78286377  0.76880344  0.91759760     0.14100
H714        H  0.68270178  0.70287056  0.97919060     0.14100
H715        H  0.65871386  0.76531674  0.51260543     0.14100
H716        H  0.81209469  0.77391286  0.50775035     0.14100
C717        C  0.62361722  0.91829547  0.64947675    -0.15100
C718        C  0.62112511  0.92505035  0.68839136    -0.30300
H719        H  0.59635531  0.92816703  0.62972882     0.13900
H720        H  0.64841755  0.91451107  0.70761562     0.14500
C721        C  0.63023672  0.56440094  0.82398623    -0.15100
C722        C  0.66687526  0.57925730  0.80469366    -0.30300
H723        H  0.62343271  0.57073010  0.85470407     0.13900
H724        H  0.67259641  0.57405855  0.77354734     0.14500
C725        C  0.38213652  0.58724636  0.84932932    -0.15100
C726        C  0.38276380  0.57623634  0.81180612    -0.30300
H727        H  0.41047139  0.57988635  0.86942405     0.13900
H728        H  0.35374406  0.58360616  0.79238145     0.14500
C729        C  0.36174349  0.91460732  0.66188189    -0.15100
C730        C  0.36975497  0.92340297  0.69946338    -0.30300
H731        H  0.38608887  0.92291714  0.63854494     0.13900
H732        H  0.34500516  0.91490033  0.72245952     0.14500
C733        C  0.20180742  0.75991317  0.74901518    -0.12000
C734        C  0.24183776  0.77930404  0.73740395     0.10100
C735        C  0.28496309  0.77429100  0.75745226    -0.12000
C736        C  0.28849772  0.74973820  0.78764249    -0.12000
C737        C  0.24907869  0.72939203  0.79837896     0.10100
C738        C  0.20545560  0.73502380  0.77919012    -0.12000
H739        H  0.16812088  0.76332320  0.73407828     0.14100
H740        H  0.31634430  0.78903595  0.74939721     0.14100
H741        H  0.32248345  0.74629115  0.80212033     0.14100
H742        H  0.17437371  0.71995338  0.78718674     0.14100
C743        C  0.22449012  0.76575438  0.02766627    -0.12000
C744        C  0.25412257  0.77235330  0.54203598     0.10100
C745        C  0.29817719  0.76032240  0.52777005    -0.12000
C746        C  0.29985582  0.73649893  0.49719699    -0.12000
C747        C  0.27019431  0.72856087  0.98458585     0.10100
C748        C  0.22624708  0.74062916  0.99892610    -0.12000
H749        H  0.18994807  0.77438416  0.03817435     0.14100
H750        H  0.33119672  0.76902672  0.54053779     0.14100
H751        H  0.33416357  0.72728959  0.48685133     0.14100
H752        H  0.19299150  0.73053895  0.98803708     0.14100
C753        C  0.88084233  0.58252722  0.94265320    -0.15100
C754        C  0.87970889  0.59150656  0.90405020    -0.30300
H755        H  0.85272303  0.59173373  0.96208601     0.13900
H756        H  0.90737789  0.58246241  0.88405123     0.14500
C757        C  0.87658800  0.93842835  0.56926379    -0.15100
C758        C  0.84104324  0.92349700  0.54958639    -0.30300
H759        H  0.88093514  0.93286265  0.60057315     0.13900
H760        H  0.83755352  0.92812736  0.51801300     0.14500
C761        C  0.12453345  0.92370127  0.55332129    -0.15100
C762        C  0.12955796  0.91659558  0.59215484    -0.30300
H763        H  0.14924947  0.91227190  0.53236379     0.13900
H764        H  0.10540603  0.92811121  0.61349505     0.14500
C765        C  0.12807268  0.56674405  0.92508558    -0.15100
C766        C  0.16658579  0.57897393  0.94349401    -0.30300
H767        H  0.12084227  0.57509882  0.89496164     0.13900
H768        H  0.17276412  0.57182587  0.97416421     0.14500
loop_ 
_geom_bond_atom_site_label_1 
_geom_bond_atom_site_label_2 
_geom_bond_distance 
_geom_bond_site_symmetry_2 
_ccdc_geom_bond_type 
N1            C6   1.357   1_455  A
N1            C5   1.356       .  A
N1           H33   1.039       .  S
N2           C10   1.355   1_556  A
N2          C585   1.355       .  A
N3            C8   1.358   1_455  A
N3            C7   1.359       .  A
N3           H34   1.038       .  S
N4           C12   1.355       .  A
N4          C587   1.355   1_554  A
C5           C13   1.387       .  A
C5           C21   1.416       .  A
C6           C22   1.418       .  A
C6           C14   1.387       .  A
C7           C15   1.387       .  A
C7           C24   1.422       .  A
C8           C23   1.422       .  A
C8           C16   1.388       .  A
C9          N578   1.354   1_545  A
C9           C21   1.418       .  A
C9           C17   1.385       .  A
C10          C24   1.420       .  A
C10          C18   1.388   1_554  A
C11         N580   1.355       .  A
C11          C19   1.387       .  A
C11          C22   1.418       .  A
C12          C20   1.386       .  A
C12          C23   1.421       .  A
C13          C14   1.368   1_455  A
C13          H25   1.082       .  S
C14          H26   1.082       .  S
C15          C16   1.370   1_455  A
C15          H27   1.082       .  S
C16          H28   1.082       .  S
C17         C594   1.369   1_545  A
C17          H29   1.082       .  S
C18         C593   1.369       .  A
C18          H30   1.081   1_556  S
C19         C596   1.367   1_545  A
C19          H31   1.081       .  S
C20         C595   1.369   1_554  A
C20          H32   1.081       .  S
C21         C189   1.493       .  S
C22         C177   1.497       .  S
C23         C181   1.497       .  S
C24         C185   1.499       .  S
O35          C38   1.265       .  A
O35         Cd40   2.428       .  S
C36         C153   1.476       .  S
C36          O45   1.266       .  A
C36          O41   1.265       .  A
O37          C43   1.267       .  A
O37         Cd40   2.501       .  S
C38          O46   1.266       .  A
C38         C168   1.471       .  S
C39          O44   1.268       .  A
C39          O42   1.262       .  A
C39         C158   1.479       .  S
Cd40         O47   2.462       .  S
Cd40         O46   2.472       .  S
Cd40         O45   2.457       .  S
Cd40         O41   2.469       .  S
Cd40         O44   2.516       .  S
Cd40         O42   2.420       .  S
C43         C186   1.482       .  S
C43          O47   1.264       .  A
O48          C51   1.267       .  A
O48         Cd53   2.477       .  S
C49          O58   1.264       .  A
C49          O54   1.269       .  A
C49         C171   1.474       .  S
O50          C56   1.269       .  A
O50         Cd53   2.492       .  S
C51         C149   1.474       .  S
C51          O59   1.265       .  A
C52         C190   1.474       .  S
C52          O57   1.269       .  A
C52          O55   1.263       .  A
Cd53         O60   2.422       .  S
Cd53         O59   2.443       .  S
Cd53         O58   2.407       .  S
Cd53         O54   2.488       .  S
Cd53         O57   2.488       .  S
Cd53         O55   2.442       .  S
C56          O60   1.264       .  A
C56         C161   1.477       .  S
N61          C66   1.360       .  A
N61          C65   1.358       .  A
N61          H93   1.038       .  S
N62          C70   1.355   1_565  A
N62         C453   1.355       .  A
N63          C68   1.357       .  A
N63          C67   1.354       .  A
N63          H94   1.040       .  S
N64          C72   1.353       .  A
N64         C455   1.350   1_545  A
C65          C73   1.387       .  A
C65          C81   1.423       .  A
C66          C82   1.423       .  A
C66          C74   1.387       .  A
C67          C75   1.388       .  A
C67          C84   1.415       .  A
C68          C83   1.416       .  A
C68          C76   1.386       .  A
C69         N446   1.355       .  A
C69          C81   1.422       .  A
C69          C77   1.389       .  A
C70          C84   1.420       .  A
C70          C78   1.386       .  A
C71         N448   1.352       .  A
C71          C79   1.387       .  A
C71          C82   1.414       .  A
C72          C80   1.386       .  A
C72          C83   1.413       .  A
C73          C74   1.371       .  A
C73          H85   1.082       .  S
C74          H86   1.082       .  S
C75          C76   1.369       .  A
C75          H87   1.082       .  S
C76          H88   1.082       .  S
C77         C462   1.368       .  A
C77          H89   1.081       .  S
C78         C461   1.370   1_545  A
C78          H90   1.081       .  S
C79         C464   1.366       .  A
C79          H91   1.082       .  S
C80         C463   1.366   1_545  A
C80          H92   1.082       .  S
C81         C142   1.499       .  S
C82         C154   1.493       .  S
C83         C150   1.493       .  S
C84         C145   1.493       .  S
O95          C98   1.269       .  A
O95        Cd100   2.487       .  S
C96         O105   1.264       .  A
C96         O101   1.270       .  A
C96         C122   1.479       .  S
O97         C103   1.268       .  A
O97        Cd100   2.497       .  S
C98         C182   1.478       .  S
C98         O106   1.264       .  A
C99         O104   1.269       .  A
C99         O102   1.265       .  A
C99         C135   1.483       .  S
Cd100       O107   2.463       .  S
Cd100       O106   2.466       .  S
Cd100       O105   2.408       .  S
Cd100       O101   2.505       .  S
Cd100       O104   2.506       .  S
Cd100       O102   2.432       .  S
C103        C141   1.482       .  S
C103        O107   1.265       .  A
O108        C111   1.269       .  A
O108       Cd113   2.490       .  S
C109        O118   1.264       .  A
C109        O114   1.269       .  A
C109        C132   1.480       .  S
O110        C116   1.266       .  A
O110       Cd113   2.493       .  S
C111        C146   1.473       .  S
C111        O119   1.263       .  A
C112        O117   1.270       .  A
C112        O115   1.266       .  A
C112        C125   1.478       .  S
Cd113       O120   2.452       .  S
Cd113       O119   2.445       .  S
Cd113       O118   2.436       .  S
Cd113       O114   2.494       .  S
Cd113       O117   2.486       .  S
Cd113       O115   2.422       .  S
C116        C178   1.477       .  S
C116        O120   1.264       .  A
C121        C122   1.406       .  A
C121        C126   1.404       .  A
C121        H127   1.083       .  S
C122        C123   1.405       .  A
C123        C124   1.392       .  A
C123        H128   1.083       .  S
C124        C125   1.403       .  A
C124        H129   1.083       .  S
C125        C126   1.407       .  A
C126        H130   1.083       .  S
C131        C132   1.406       .  A
C131        C328   1.398       .  A
C131        H137   1.083       .  S
C132        C133   1.404       .  A
C133        C326   1.402       .  A
C133        H138   1.083       .  S
C134        C135   1.409       .  A
C134        C325   1.408   1_554  A
C134        H139   1.083       .  S
C135        C136   1.403       .  A
C136        C323   1.392   1_554  A
C136        H140   1.083       .  S
C141        C142   1.348       .  D
C141        H143   1.086       .  S
C142        H144   1.086       .  S
C145        C146   1.341       .  D
C145        H147   1.087       .  S
C146        H148   1.086       .  S
C149        C150   1.346       .  D
C149        H151   1.086       .  S
C150        H152   1.086       .  S
C153        C154   1.343       .  D
C153        H155   1.086       .  S
C154        H156   1.087       .  S
C157        C158   1.406       .  A
C157        C162   1.404       .  A
C157        H163   1.083       .  S
C158        C159   1.404       .  A
C159        C160   1.392       .  A
C159        H164   1.083       .  S
C160        C161   1.403       .  A
C160        H165   1.083       .  S
C161        C162   1.406       .  A
C162        H166   1.083       .  S
C167        C172   1.389       .  A
C167        C360   1.402       .  A
C167        H173   1.083       .  S
C168        C169   1.405       .  A
C168        C359   1.402       .  A
C169        C170   1.401   1_554  A
C169        H174   1.083       .  S
C170        C363   1.405       .  A
C170        H175   1.083       .  S
C171        C172   1.403       .  A
C171        C362   1.406       .  A
C172        H176   1.083       .  S
C177        C178   1.347       .  D
C177        H179   1.086       .  S
C178        H180   1.086       .  S
C181        C182   1.345       .  D
C181        H183   1.087       .  S
C182        H184   1.087       .  S
C185        C186   1.349       .  D
C185        H187   1.086       .  S
C186        H188   1.086       .  S
C189        C190   1.342       .  D
C189        H191   1.087       .  S
C190        H192   1.087       .  S
N193        C198   1.354       .  A
N193        C197   1.353   1_655  A
N193        H225   1.037       .  S
N194        C393   1.355       .  A
N194        C202   1.354       .  A
N195        C200   1.355       .  A
N195        C199   1.355   1_655  A
N195        H226   1.040       .  S
N196        C395   1.352       .  A
N196        C204   1.351       .  A
C197        C205   1.386       .  A
C197        C213   1.411       .  A
C198        C214   1.415       .  A
C198        C206   1.387       .  A
C199        C207   1.389       .  A
C199        C216   1.421       .  A
C200        C215   1.420       .  A
C200        C208   1.386       .  A
C201        N386   1.356   1_545  A
C201        C213   1.418       .  A
C201        C209   1.385   1_545  A
C202        C216   1.418       .  A
C202        C210   1.388       .  A
C203        N388   1.351   1_546  A
C203        C211   1.386   1_545  A
C203        C214   1.410       .  A
C204        C212   1.388       .  A
C204        C215   1.414       .  A
C205        C206   1.374   1_455  A
C205        H217   1.082       .  S
C206        H218   1.082       .  S
C207        C208   1.378   1_455  A
C207        H219   1.080       .  S
C208        H220   1.082       .  S
C209        C402   1.374       .  A
C209        H221   1.082   1_565  S
C210        C401   1.374       .  A
C210        H222   1.082       .  S
C211        C404   1.369       .  A
C211        H223   1.082   1_565  S
C212        C403   1.371       .  A
C212        H224   1.082       .  S
C213        C381   1.496       .  S
C214        C369   1.489       .  S
C215        C373   1.493       .  S
C216        C377   1.493       .  S
O227        C230   1.265       .  A
O227       Cd232   2.411       .  S
C228        C345   1.471       .  S
C228        O237   1.266       .  A
C228        O233   1.265       .  A
O229        C235   1.267       .  A
O229       Cd232   2.505       .  S
C230        O238   1.267       .  A
C230        C360   1.473       .  S
C231        O236   1.268       .  A
C231        O234   1.263       .  A
C231        C350   1.485       .  S
Cd232       O239   2.468       .  S
Cd232       O238   2.479       .  S
Cd232       O237   2.428       .  S
Cd232       O233   2.475       .  S
Cd232       O236   2.522       .  S
Cd232       O234   2.437       .  S
C235        C378   1.481       .  S
C235        O239   1.264       .  A
O240        C243   1.267       .  A
O240       Cd245   2.475       .  S
C241        O250   1.265       .  A
C241        O246   1.269       .  A
C241        C363   1.473       .  S
O242        C248   1.271       .  A
O242       Cd245   2.513       .  S
C243        C341   1.472       .  S
C243        O251   1.266       .  A
C244        C382   1.480       .  S
C244        O249   1.271       .  A
C244        O247   1.263       .  A
Cd245       O252   2.433       .  S
Cd245       O251   2.432       .  S
Cd245       O250   2.408       .  S
Cd245       O246   2.475       .  S
Cd245       O249   2.505       .  S
Cd245       O247   2.448       .  S
C248        O252   1.265       .  A
C248        C353   1.485       .  S
N253        C258   1.357       .  A
N253        C257   1.358       .  A
N253        H285   1.038       .  S
N254        C645   1.355       .  A
N254        C262   1.357   1_565  A
N255        C260   1.356       .  A
N255        C259   1.354       .  A
N255        H286   1.040       .  S
N256        C647   1.351       .  A
N256        C264   1.353   1_565  A
C257        C265   1.387       .  A
C257        C273   1.420       .  A
C258        C274   1.420       .  A
C258        C266   1.387       .  A
C259        C267   1.386       .  A
C259        C276   1.412       .  A
C260        C275   1.416       .  A
C260        C268   1.387       .  A
C261        N638   1.356       .  A
C261        C273   1.420       .  A
C261        C269   1.387       .  A
C262        C276   1.418       .  A
C262        C270   1.384       .  A
C263        N640   1.350       .  A
C263        C271   1.388       .  A
C263        C274   1.414       .  A
C264        C272   1.387       .  A
C264        C275   1.413       .  A
C265        C266   1.370       .  A
C265        H277   1.082       .  S
C266        H278   1.082       .  S
C267        C268   1.370       .  A
C267        H279   1.082       .  S
C268        H280   1.082       .  S
C269        C654   1.370       .  A
C269        H281   1.081       .  S
C270        C653   1.368   1_545  A
C270        H282   1.081       .  S
C271        C656   1.366       .  A
C271        H283   1.082       .  S
C272        C655   1.366   1_545  A
C272        H284   1.082       .  S
C273        C334   1.500       .  S
C274        C346   1.484       .  S
C275        C342   1.491       .  S
C276        C337   1.496       .  S
O287        C290   1.265       .  A
O287       Cd292   2.487       .  S
C288        O297   1.265       .  A
C288        O293   1.268       .  A
C288        C314   1.475       .  S
O289        C295   1.267       .  A
O289       Cd292   2.513       .  S
C290        C374   1.479       .  S
C290        O298   1.266       .  A
C291        O296   1.262       .  A
C291        O294   1.264       .  A
C291        C327   1.484       .  S
Cd292       O299   2.466       .  S
Cd292       O298   2.458       .  S
Cd292       O297   2.424       .  S
Cd292       O293   2.479       .  S
Cd292       O296   2.490       .  S
Cd292       O294   2.499       .  S
C295        C333   1.483       .  S
C295        O299   1.263       .  A
O300        C303   1.270       .  A
O300       Cd305   2.494       .  S
C301        O310   1.263       .  A
C301        O306   1.269       .  A
C301        C324   1.481       .  S
O302        C308   1.265       .  A
O302       Cd305   2.476       .  S
C303        C338   1.477       .  S
C303        O311   1.263       .  A
C304        O309   1.268       .  A
C304        O307   1.264       .  A
C304        C317   1.472       .  S
Cd305       O312   2.443       .  S
Cd305       O311   2.449       .  S
Cd305       O310   2.416       .  S
Cd305       O306   2.531       .  S
Cd305       O309   2.482       .  S
Cd305       O307   2.397       .  S
C308        C370   1.473       .  S
C308        O312   1.266       .  A
C313        C314   1.407       .  A
C313        C318   1.402       .  A
C313        H319   1.083       .  S
C314        C315   1.403       .  A
C315        C316   1.390       .  A
C315        H320   1.083       .  S
C316        C317   1.402       .  A
C316        H321   1.083       .  S
C317        C318   1.405       .  A
C318        H322   1.083       .  S
C323        C324   1.403       .  A
C323        H329   1.083       .  S
C324        C325   1.407       .  A
C325        H330   1.083       .  S
C326        C327   1.408       .  A
C326        H331   1.083       .  S
C327        C328   1.405       .  A
C328        H332   1.083       .  S
C333        C334   1.350       .  D
C333        H335   1.086       .  S
C334        H336   1.086       .  S
C337        C338   1.343       .  D
C337        H339   1.087       .  S
C338        H340   1.086       .  S
C341        C342   1.345       .  D
C341        H343   1.087       .  S
C342        H344   1.087       .  S
C345        C346   1.341       .  D
C345        H347   1.087       .  S
C346        H348   1.087       .  S
C349        C350   1.407       .  A
C349        C354   1.407       .  A
C349        H355   1.083       .  S
C350        C351   1.405       .  A
C351        C352   1.395       .  A
C351        H356   1.083       .  S
C352        C353   1.405       .  A
C352        H357   1.083       .  S
C353        C354   1.407       .  A
C354        H358   1.083       .  S
C359        C364   1.391   1_554  A
C359        H365   1.083       .  S
C360        C361   1.406       .  A
C361        C362   1.402       .  A
C361        H366   1.083       .  S
C362        H367   1.083       .  S
C363        C364   1.404       .  A
C364        H368   1.083       .  S
C369        C370   1.343       .  D
C369        H371   1.087       .  S
C370        H372   1.086       .  S
C373        C374   1.344       .  D
C373        H375   1.087       .  S
C374        H376   1.086       .  S
C377        C378   1.346       .  D
C377        H379   1.087       .  S
C378        H380   1.086       .  S
C381        C382   1.342       .  D
C381        H383   1.087       .  S
C382        H384   1.087       .  S
N385        C390   1.354       .  A
N385        C389   1.352   1_655  A
N385        H417   1.042       .  S
N386        C394   1.354   1_556  A
N387        C392   1.357       .  A
N387        C391   1.354   1_655  A
N387        H418   1.035       .  S
N388        C396   1.352       .  A
C389        C397   1.386       .  A
C389        C405   1.410       .  A
C390        C406   1.415       .  A
C390        C398   1.387       .  A
C391        C399   1.389       .  A
C391        C408   1.421       .  A
C392        C407   1.420       .  A
C392        C400   1.385       .  A
C393        C405   1.417       .  A
C393        C401   1.385       .  A
C394        C408   1.419       .  A
C394        C402   1.388   1_554  A
C395        C403   1.386       .  A
C395        C406   1.411       .  A
C396        C404   1.388   1_554  A
C396        C407   1.413       .  A
C397        C398   1.374   1_455  A
C397        H409   1.082       .  S
C398        H410   1.082       .  S
C399        C400   1.377   1_455  A
C399        H411   1.080       .  S
C400        H412   1.082       .  S
C401        H413   1.082       .  S
C402        H414   1.082       .  S
C403        H415   1.082       .  S
C404        H416   1.082   1_556  S
C405        C573   1.495       .  S
C406        C561   1.492       .  S
C407        C565   1.496       .  S
C408        C569   1.491       .  S
O419        C422   1.265       .  A
O419       Cd424   2.402       .  S
C420        C537   1.471       .  S
C420        O429   1.265       .  A
C420        O425   1.266       .  A
O421        C427   1.267       .  A
O421       Cd424   2.506       .  S
C422        O430   1.268       .  A
C422        C552   1.471       .  S
C423        O428   1.268       .  A
C423        O426   1.263       .  A
C423        C542   1.483       .  S
Cd424       O431   2.457       .  S
Cd424       O430   2.474       .  S
Cd424       O429   2.417       .  S
Cd424       O425   2.477       .  S
Cd424       O428   2.508       .  S
Cd424       O426   2.448       .  S
C427        C570   1.480       .  S
C427        O431   1.263       .  A
O432        C435   1.267       .  A
O432       Cd437   2.476       .  S
C433        O442   1.265       .  A
C433        O438   1.269       .  A
C433        C555   1.474       .  S
O434        C440   1.271       .  A
O434       Cd437   2.509       .  S
C435        C533   1.474       .  S
C435        O443   1.266       .  A
C436        C574   1.480       .  S
C436        O441   1.272       .  A
C436        O439   1.262       .  A
Cd437       O444   2.435       .  S
Cd437       O443   2.438       .  S
Cd437       O442   2.425       .  S
Cd437       O438   2.469       .  S
Cd437       O441   2.522       .  S
Cd437       O439   2.441       .  S
C440        O444   1.265       .  A
C440        C545   1.485       .  S
N445        C450   1.357       .  A
N445        C449   1.358       .  A
N445        H477   1.039       .  S
N446        C454   1.357       .  A
N447        C452   1.358       .  A
N447        C451   1.355       .  A
N447        H478   1.039       .  S
N448        C456   1.352       .  A
C449        C457   1.386       .  A
C449        C465   1.419       .  A
C450        C466   1.419       .  A
C450        C458   1.388       .  A
C451        C459   1.386       .  A
C451        C468   1.415       .  A
C452        C467   1.419       .  A
C452        C460   1.387       .  A
C453        C465   1.420       .  A
C453        C461   1.387       .  A
C454        C468   1.420       .  A
C454        C462   1.384       .  A
C455        C463   1.388       .  A
C455        C466   1.413       .  A
C456        C464   1.388       .  A
C456        C467   1.415       .  A
C457        C458   1.370       .  A
C457        H469   1.082       .  S
C458        H470   1.082       .  S
C459        C460   1.369       .  A
C459        H471   1.082       .  S
C460        H472   1.082       .  S
C461        H473   1.081       .  S
C462        H474   1.081       .  S
C463        H475   1.082       .  S
C464        H476   1.082       .  S
C465        C526   1.500       .  S
C466        C538   1.484       .  S
C467        C534   1.492       .  S
C468        C529   1.498       .  S
O479        C482   1.265       .  A
O479       Cd484   2.482       .  S
C480        O489   1.265       .  A
C480        O485   1.267       .  A
C480        C506   1.475       .  S
O481        C487   1.267       .  A
O481       Cd484   2.518       .  S
C482        C566   1.480       .  S
C482        O490   1.268       .  A
C483        O488   1.263       .  A
C483        O486   1.264       .  A
C483        C519   1.487       .  S
Cd484       O491   2.471       .  S
Cd484       O490   2.462       .  S
Cd484       O489   2.435       .  S
Cd484       O485   2.470       .  S
Cd484       O488   2.498       .  S
Cd484       O486   2.503       .  S
C487        C525   1.484       .  S
C487        O491   1.263       .  A
O492        C495   1.271       .  A
O492       Cd497   2.491       .  S
C493        O502   1.263       .  A
C493        O498   1.270       .  A
C493        C516   1.479       .  S
O494        C500   1.267       .  A
O494       Cd497   2.477       .  S
C495        C530   1.478       .  S
C495        O503   1.264       .  A
C496        O501   1.269       .  A
C496        O499   1.265       .  A
C496        C509   1.474       .  S
Cd497       O504   2.439       .  S
Cd497       O503   2.448       .  S
Cd497       O502   2.407       .  S
Cd497       O498   2.520       .  S
Cd497       O501   2.480       .  S
Cd497       O499   2.418       .  S
C500        C562   1.474       .  S
C500        O504   1.266       .  A
C505        C506   1.406       .  A
C505        C510   1.401       .  A
C505        H511   1.083       .  S
C506        C507   1.403       .  A
C507        C508   1.393       .  A
C507        H512   1.083       .  S
C508        C509   1.404       .  A
C508        H513   1.083       .  S
C509        C510   1.405       .  A
C510        H514   1.083       .  S
C515        C516   1.404       .  A
C515        C712   1.392       .  A
C515        H521   1.083       .  S
C516        C517   1.406       .  A
C517        C710   1.406       .  A
C517        H522   1.083       .  S
C518        C709   1.403   1_554  A
C518        C519   1.408       .  A
C518        H523   1.083       .  S
C519        C520   1.405   1_554  A
C520        C707   1.400       .  A
C520        H524   1.083       .  S
C525        C526   1.351       .  D
C525        H527   1.086       .  S
C526        H528   1.086       .  S
C529        C530   1.343       .  D
C529        H531   1.087       .  S
C530        H532   1.086       .  S
C533        C534   1.344       .  D
C533        H535   1.086       .  S
C534        H536   1.087       .  S
C537        C538   1.342       .  D
C537        H539   1.087       .  S
C538        H540   1.087       .  S
C541        C542   1.406       .  A
C541        C546   1.404       .  A
C541        H547   1.083       .  S
C542        C543   1.405       .  A
C543        C544   1.397       .  A
C543        H548   1.083       .  S
C544        C545   1.406       .  A
C544        H549   1.083       .  S
C545        C546   1.406       .  A
C546        H550   1.083       .  S
C551        C744   1.403       .  A
C551        C556   1.393       .  A
C551        H557   1.083       .  S
C552        C743   1.402       .  A
C552        C553   1.405       .  A
C553        C554   1.401   1_554  A
C553        H558   1.083       .  S
C554        C747   1.406       .  A
C554        H559   1.083       .  S
C555        C746   1.405       .  A
C555        C556   1.404       .  A
C556        H560   1.083       .  S
C561        C562   1.345       .  D
C561        H563   1.087       .  S
C562        H564   1.086       .  S
C565        C566   1.344       .  D
C565        H567   1.087       .  S
C566        H568   1.086       .  S
C569        C570   1.346       .  D
C569        H571   1.087       .  S
C570        H572   1.086       .  S
C573        C574   1.341       .  D
C573        H575   1.087       .  S
C574        H576   1.087       .  S
N577        C582   1.358   1_455  A
N577        C581   1.357       .  A
N577        H609   1.039       .  S
N578        C586   1.354       .  A
N579        C584   1.357   1_455  A
N579        C583   1.358       .  A
N579        H610   1.037       .  S
N580        C588   1.354   1_545  A
C581        C589   1.387       .  A
C581        C597   1.418       .  A
C582        C598   1.421       .  A
C582        C590   1.387       .  A
C583        C591   1.387       .  A
C583        C600   1.422       .  A
C584        C599   1.420       .  A
C584        C592   1.388       .  A
C585        C597   1.420       .  A
C585        C593   1.385       .  A
C586        C600   1.420       .  A
C586        C594   1.388       .  A
C587        C595   1.388       .  A
C587        C598   1.420       .  A
C588        C596   1.387       .  A
C588        C599   1.421       .  A
C589        C590   1.370   1_455  A
C589        H601   1.082       .  S
C590        H602   1.082       .  S
C591        C592   1.369   1_455  A
C591        H603   1.082       .  S
C592        H604   1.082       .  S
C593        H605   1.082       .  S
C594        H606   1.081       .  S
C595        H607   1.081       .  S
C596        H608   1.081       .  S
C597        C765   1.497       .  S
C598        C753   1.499       .  S
C599        C757   1.494       .  S
C600        C761   1.498       .  S
O611        C614   1.264       .  A
O611       Cd616   2.432       .  S
C612        C729   1.476       .  S
C612        O621   1.267       .  A
C612        O617   1.266       .  A
O613        C619   1.267       .  A
O613       Cd616   2.497       .  S
C614        O622   1.266       .  A
C614        C744   1.472       .  S
C615        O620   1.268       .  A
C615        O618   1.263       .  A
C615        C734   1.478       .  S
Cd616       O623   2.458       .  S
Cd616       O622   2.469       .  S
Cd616       O621   2.450       .  S
Cd616       O617   2.475       .  S
Cd616       O620   2.504       .  S
Cd616       O618   2.430       .  S
C619        C762   1.479       .  S
C619        O623   1.263       .  A
O624        C627   1.267       .  A
O624       Cd629   2.479       .  S
C625        O634   1.265       .  A
C625        O630   1.268       .  A
C625        C747   1.474       .  S
O626        C632   1.269       .  A
O626       Cd629   2.493       .  S
C627        C725   1.474       .  S
C627        O635   1.265       .  A
C628        C766   1.478       .  S
C628        O633   1.269       .  A
C628        O631   1.264       .  A
Cd629       O636   2.432       .  S
Cd629       O635   2.442       .  S
Cd629       O634   2.412       .  S
Cd629       O630   2.482       .  S
Cd629       O633   2.496       .  S
Cd629       O631   2.452       .  S
C632        O636   1.264       .  A
C632        C737   1.479       .  S
N637        C642   1.359       .  A
N637        C641   1.358       .  A
N637        H669   1.038       .  S
N638        C646   1.355       .  A
N639        C644   1.358       .  A
N639        C643   1.354       .  A
N639        H670   1.039       .  S
N640        C648   1.353       .  A
C641        C649   1.387       .  A
C641        C657   1.423       .  A
C642        C658   1.423       .  A
C642        C650   1.387       .  A
C643        C651   1.387       .  A
C643        C660   1.416       .  A
C644        C659   1.418       .  A
C644        C652   1.387       .  A
C645        C657   1.422       .  A
C645        C653   1.389       .  A
C646        C660   1.420       .  A
C646        C654   1.386       .  A
C647        C655   1.388       .  A
C647        C658   1.415       .  A
C648        C656   1.387       .  A
C648        C659   1.414       .  A
C649        C650   1.371       .  A
C649        H661   1.082       .  S
C650        H662   1.082       .  S
C651        C652   1.368       .  A
C651        H663   1.082       .  S
C652        H664   1.082       .  S
C653        H665   1.081       .  S
C654        H666   1.082       .  S
C655        H667   1.082       .  S
C656        H668   1.082       .  S
C657        C718   1.499       .  S
C658        C730   1.492       .  S
C659        C726   1.495       .  S
C660        C721   1.493       .  S
O671        C674   1.269       .  A
O671       Cd676   2.482       .  S
C672        O681   1.265       .  A
C672        O677   1.270       .  A
C672        C698   1.479       .  S
O673        C679   1.268       .  A
O673       Cd676   2.496       .  S
C674        C758   1.473       .  S
C674        O682   1.264       .  A
C675        O680   1.270       .  A
C675        O678   1.264       .  A
C675        C711   1.480       .  S
Cd676       O683   2.457       .  S
Cd676       O682   2.447       .  S
Cd676       O681   2.417       .  S
Cd676       O677   2.499       .  S
Cd676       O680   2.503       .  S
Cd676       O678   2.421       .  S
C679        C717   1.481       .  S
C679        O683   1.265       .  A
O684        C687   1.269       .  A
O684       Cd689   2.495       .  S
C685        O694   1.264       .  A
C685        O690   1.270       .  A
C685        C708   1.485       .  S
O686        C692   1.267       .  A
O686       Cd689   2.497       .  S
C687        C722   1.474       .  S
C687        O695   1.263       .  A
C688        O693   1.271       .  A
C688        O691   1.266       .  A
C688        C701   1.478       .  S
Cd689       O696   2.461       .  S
Cd689       O695   2.448       .  S
Cd689       O694   2.448       .  S
Cd689       O690   2.506       .  S
Cd689       O693   2.492       .  S
Cd689       O691   2.416       .  S
C692        C754   1.479       .  S
C692        O696   1.264       .  A
C697        C698   1.406       .  A
C697        C702   1.404       .  A
C697        H703   1.083       .  S
C698        C699   1.404       .  A
C699        C700   1.392       .  A
C699        H704   1.083       .  S
C700        C701   1.403       .  A
C700        H705   1.083       .  S
C701        C702   1.406       .  A
C702        H706   1.083       .  S
C707        C708   1.407       .  A
C707        H713   1.083       .  S
C708        C709   1.405       .  A
C709        H714   1.083       .  S
C710        C711   1.407       .  A
C710        H715   1.083       .  S
C711        C712   1.403       .  A
C712        H716   1.083       .  S
C717        C718   1.348       .  D
C717        H719   1.086       .  S
C718        H720   1.085       .  S
C721        C722   1.341       .  D
C721        H723   1.087       .  S
C722        H724   1.087       .  S
C725        C726   1.346       .  D
C725        H727   1.086       .  S
C726        H728   1.087       .  S
C729        C730   1.343       .  D
C729        H731   1.086       .  S
C730        H732   1.087       .  S
C733        C734   1.405       .  A
C733        C738   1.403       .  A
C733        H739   1.083       .  S
C734        C735   1.404       .  A
C735        C736   1.394       .  A
C735        H740   1.083       .  S
C736        C737   1.405       .  A
C736        H741   1.083       .  S
C737        C738   1.406       .  A
C738        H742   1.083       .  S
C743        C748   1.389   1_554  A
C743        H749   1.083       .  S
C744        C745   1.404       .  A
C745        C746   1.399       .  A
C745        H750   1.083       .  S
C746        H751   1.083       .  S
C747        C748   1.403       .  A
C748        H752   1.083       .  S
C753        C754   1.349       .  D
C753        H755   1.086       .  S
C754        H756   1.086       .  S
C757        C758   1.342       .  D
C757        H759   1.087       .  S
C758        H760   1.087       .  S
C761        C762   1.348       .  D
C761        H763   1.086       .  S
C762        H764   1.086       .  S
C765        C766   1.344       .  D
C765        H767   1.087       .  S
C766        H768   1.087       .  S
