geometry optimzed in LAMMPS
_audit_creation_date              2020-11-30 
_audit_creation_method            'lammps2cif' 
_symmetry_space_group_name_H-M    'P1' 
_symmetry_Int_Tables_number       1 
_symmetry_cell_setting            triclinic 
loop_ 
_symmetry_equiv_pos_as_xyz 
  x,y,z 
_cell_length_a                    60.92725994 
_cell_length_b                    60.968275024296624 
_cell_length_c                    60.85134631424461 
_cell_angle_alpha                 90.11924117148826 
_cell_angle_beta                  89.94406571781404 
_cell_angle_gamma                 90.07985442723243 
loop_ 
_atom_site_label 
_atom_site_type_symbol 
_atom_site_fract_x 
_atom_site_fract_y 
_atom_site_fract_z 
_atom_site_charge 
O1          O  0.88010463  0.34885858  0.84707055    -0.82200
C2          C  0.83681701  0.27345317  0.88110573     0.97100
O3          O  0.83464162  0.28187993  0.86237005    -0.71400
O4          O  0.82429219  0.32255501  0.86559615    -0.74900
Al5        Al  0.84586158  0.30785571  0.84944958     1.49000
C6          C  0.82492782  0.34207442  0.87219782     0.92400
O7          O  0.86712927  0.33593319  0.90765035    -0.81200
O8          O  0.90773705  0.30047677  0.87269248    -0.74700
Al9        Al  0.87308723  0.34072341  0.87688049     1.90100
O10         O  0.88296069  0.30379914  0.91007881    -0.73800
O11         O  0.88000937  0.27145535  0.85639229    -0.73600
O12         O  0.85344338  0.27757866  0.89273820    -0.79300
O13         O  0.86536109  0.29228918  0.83115116    -0.77500
O14         O  0.86631396  0.31302154  0.86951550    -1.13600
O15         O  0.85184062  0.33276776  0.83175307    -0.72800
C16         C  0.86766052  0.34600912  0.83073531     0.97900
C17         C  0.87471497  0.32047993  0.91922719     0.94300
Al18       Al  0.87999465  0.29036657  0.88196681     1.55600
O19         O  0.84311579  0.35199218  0.87447264    -0.77500
C20         C  0.87553012  0.27511623  0.83645209     0.98400
C21         C  0.91622120  0.31916438  0.87555140     0.93300
O22         O  0.90428311  0.33545049  0.88054623    -0.82800
O23         O  0.64672995  0.15440814  0.88417847    -0.82200
C24         C  0.72052967  0.12119809  0.83798596     0.97100
O25         O  0.71197229  0.13987720  0.83658236    -0.71400
O26         O  0.67095991  0.13578081  0.82688601    -0.74900
Al27       Al  0.68589012  0.15199424  0.84839226     1.49000
C28         C  0.65107608  0.13038313  0.82799849     0.92400
O29         O  0.65705929  0.09397677  0.86933577    -0.81200
O30         O  0.69436962  0.12599821  0.91016081    -0.74700
Al31       Al  0.65334163  0.12467764  0.87607848     1.90100
O32         O  0.69024966  0.09061855  0.88292911    -0.73800
O33         O  0.72195450  0.14429632  0.88256223    -0.73600
O34         O  0.71643696  0.10904104  0.85421131    -0.79300
O35         O  0.70161875  0.17023128  0.86815499    -0.77500
O36         O  0.68100865  0.13159491  0.86871340    -1.13600
O37         O  0.66088289  0.16933979  0.85469911    -0.72800
C38         C  0.64961016  0.17082566  0.87192781     0.97900
C39         C  0.67285130  0.08202573  0.87558715     0.94300
Al40       Al  0.70376280  0.11856625  0.88145453     1.55600
O41         O  0.64151246  0.12832018  0.84643635    -0.77500
C42         C  0.71831818  0.16439505  0.87889550     0.98400
C43         C  0.67584870  0.12281057  0.91886452     0.93300
O44         O  0.65908809  0.11977042  0.90696756    -0.82800
O45         O  0.84141851  0.11451488  0.64756279    -0.82200
C46         C  0.87512149  0.15961822  0.72213768     0.97100
O47         O  0.85655910  0.16125096  0.71326311    -0.71400
O48         O  0.86145489  0.17113074  0.67225995    -0.74900
Al49       Al  0.84454642  0.14997912  0.68686083     1.49000
C50         C  0.86773812  0.17000826  0.65259411     0.92400
O51         O  0.90242734  0.12715907  0.65867895    -0.81200
O52         O  0.86902869  0.08852934  0.69643761    -0.74700
Al53       Al  0.87151472  0.12163826  0.65476066     1.90100
O54         O  0.90565841  0.11431851  0.69220551    -0.73800
O55         O  0.85125709  0.11652542  0.72358549    -0.73600
O56         O  0.88742380  0.14363074  0.71779973    -0.79300
O57         O  0.82583593  0.13049039  0.70225541    -0.77500
O58         O  0.86465949  0.12939327  0.68231761    -1.13600
O59         O  0.82716954  0.14432683  0.66142513    -0.72800
C60         C  0.82534335  0.12737266  0.64978292     0.97900
C61         C  0.91432765  0.12118536  0.67462693     0.94300
Al62       Al  0.87731808  0.11671325  0.70543257     1.55600
O63         O  0.86930272  0.15156689  0.64285003    -0.77500
C64         C  0.83121528  0.12030790  0.71947382     0.98400
C65         C  0.87150904  0.07939038  0.67806174     0.93300
O66         O  0.87509194  0.09072295  0.66100271    -0.82800
O67         O  0.61761486  0.34164645  0.85092913    -0.82200
C68         C  0.65630218  0.38017780  0.77554941     0.97100
O69         O  0.65978656  0.36148588  0.78350410    -0.90600
O70         O  0.67179291  0.36577421  0.82408015    -0.74900
Al71       Al  0.65092958  0.34782810  0.80995303     1.49000
C72         C  0.67134819  0.37036177  0.84424611     0.92400
O73         O  0.62764461  0.40267439  0.84090718    -0.81200
O74         O  0.58731753  0.36750388  0.80545347    -0.74700
Al75       Al  0.62301839  0.37192572  0.84448891     1.90100
O76         O  0.61075920  0.40601061  0.80917689    -0.73800
O77         O  0.61462060  0.35316607  0.77554074    -0.73600
O78         O  0.63945143  0.39091260  0.78084493    -0.79300
O79         O  0.63197186  0.32829172  0.79490301    -0.77500
O80         O  0.62931937  0.36616386  0.81634027    -1.13600
O81         O  0.64759211  0.32953002  0.83511288    -0.72800
C82         C  0.63160538  0.32668944  0.84793553     0.97900
C83         C  0.61974378  0.41455324  0.82588220     0.94300
Al84       Al  0.61414862  0.37841851  0.79465300     1.55600
O85         O  0.65335604  0.37023822  0.85480356    -0.77500
C86         C  0.62025270  0.33342273  0.77860002     0.98400
C87         C  0.57929242  0.36987748  0.82438603     0.93300
O88         O  0.59156633  0.37481494  0.84043824    -0.82800
O89         O  0.84963378  0.38045901  0.65790793    -0.82200
C90         C  0.77520412  0.33591997  0.62332914     0.97100
O91         O  0.78306812  0.33461959  0.64238885    -0.71400
O92         O  0.82391382  0.32488157  0.64060798    -0.74900
Al93       Al  0.80842870  0.34666846  0.65565533     1.49000
C94         C  0.84293593  0.32542346  0.63264951     0.92400
O95         O  0.83726966  0.36857545  0.59650231    -0.81200
O96         O  0.80013417  0.40790907  0.63029652    -0.74700
Al97       Al  0.84150515  0.37382135  0.62779501     1.90100
O98         O  0.80427124  0.38226757  0.59361025    -0.73800
O99         O  0.77181928  0.37980218  0.64669292    -0.73600
O100        O  0.77916691  0.35232580  0.61136620    -0.79300
O101        O  0.79190665  0.36643059  0.67321466    -0.77500
O102        O  0.81377434  0.36669959  0.63495003    -1.13600
O103        O  0.83251639  0.35335159  0.67396650    -0.72800
C104        C  0.84567550  0.36915115  0.67484108     0.97900
C105        C  0.82140837  0.37495441  0.58467168     0.94300
Al106      Al  0.79098259  0.37952885  0.62166413     1.55600
O107        O  0.85272102  0.34360597  0.62953815    -0.77500
C108        C  0.77494927  0.37640837  0.66689439     0.98400
C109        C  0.81872968  0.41684812  0.62822570     0.93300
O110        O  0.83566135  0.40517642  0.62472416    -0.82800
O111        O  0.65236511  0.14582625  0.61824340    -0.82200
C112        C  0.62178506  0.22343059  0.65975014     0.97100
O113        O  0.64054196  0.21495938  0.66092121    -0.71400
O114        O  0.63397635  0.17516977  0.67290396    -0.74900
Al115      Al  0.65118486  0.18743458  0.65094757     1.49000
C116        C  0.62607038  0.15613232  0.67321417     0.92400
O117        O  0.59202676  0.15995807  0.63016727    -0.81200
O118        O  0.62556227  0.19437256  0.58942438    -0.74700
Al119      Al  0.62265847  0.15467931  0.62483862     1.90100
O120        O  0.58958903  0.19300575  0.61625582    -0.73800
O121        O  0.64512014  0.22228063  0.61577666    -0.73600
O122        O  0.60923407  0.21886321  0.64399981    -0.79300
O123        O  0.67006080  0.20072540  0.63027729    -0.77500
O124        O  0.63058208  0.18234536  0.63089394    -1.13600
O125        O  0.66746287  0.16104639  0.64696601    -0.72800
C126        C  0.66867413  0.14832657  0.63075870     0.97900
C127        C  0.58054574  0.17606569  0.62401366     0.94300
Al128      Al  0.61838834  0.20512211  0.61735483     1.55600
O129        O  0.62422050  0.14493252  0.65560753    -0.77500
C130        C  0.66507727  0.21777604  0.61966372     0.98400
C131        C  0.62268994  0.17563675  0.58114063     0.93300
O132        O  0.61935074  0.15912610  0.59334671    -0.82800
O133        O  0.11675546  0.15322323  0.64550588    -0.82200
C134        C  0.15917220  0.11997422  0.72145135     0.97100
O135        O  0.16154069  0.13841637  0.71259078    -0.71400
O136        O  0.17190979  0.13242635  0.67209375    -0.74900
Al137      Al  0.15109232  0.15025721  0.68597911     1.49000
C138        C  0.17106416  0.12557948  0.65261850     0.92400
O139        O  0.12742282  0.09242758  0.65899981    -0.81200
O140        O  0.08834456  0.12776096  0.69478996    -0.74700
Al141      Al  0.12263292  0.12317738  0.65392311     1.90100
O142        O  0.11317555  0.09037697  0.69205994    -0.73800
O143        O  0.11698503  0.14512056  0.72231949    -0.73600
O144        O  0.14269478  0.10824007  0.71730656    -0.79300
O145        O  0.13208812  0.17001831  0.70107376    -0.77500
O146        O  0.12987546  0.13070104  0.68144252    -1.13600
O147        O  0.14650292  0.16704912  0.66011621    -0.72800
C148        C  0.13030126  0.16884164  0.64749122     0.97900
C149        C  0.12076613  0.08112938  0.67510539     0.94300
Al150      Al  0.11630487  0.11889638  0.70454368     1.55600
O151        O  0.15282522  0.12426086  0.64253857    -0.77500
C152        C  0.12207653  0.16492272  0.71854961     0.98400
C153        C  0.07950993  0.12445604  0.67633788     0.93300
O154        O  0.09129862  0.12034125  0.65963218    -0.82800
O155        O  0.34499346  0.12250874  0.84367537    -0.82200
C156        C  0.26940810  0.16119335  0.88119665     0.97100
O157        O  0.27652016  0.16344414  0.86193417    -0.71400
O158        O  0.31665383  0.17591027  0.86744240    -0.74900
Al159      Al  0.30361110  0.15480320  0.84922833     1.49000
C160        C  0.33634456  0.17577604  0.87362852     0.92400
O161        O  0.33377606  0.13063286  0.90492429    -0.81200
O162        O  0.29814680  0.09116476  0.87011103    -0.74700
Al163      Al  0.33767714  0.12708117  0.87400749     1.90100
O164        O  0.30142693  0.11511389  0.90781999    -0.73800
O165        O  0.26925303  0.11898636  0.85469872    -0.73600
O166        O  0.27451245  0.14455230  0.89232020    -0.79300
O167        O  0.28965257  0.13520939  0.82968570    -0.77500
O168        O  0.30973793  0.13334232  0.86794771    -1.13600
O169        O  0.32936489  0.15230381  0.83145625    -0.72800
C170        C  0.34228223  0.13647427  0.82868293     0.97900
C171        C  0.31846974  0.12293047  0.91658209     0.94300
Al172      Al  0.28771343  0.11859183  0.88023030     1.55600
O173        O  0.34734708  0.15798237  0.87371260    -0.77500
C174        C  0.27315596  0.12373083  0.83482769     0.98400
C175        C  0.31704703  0.08290099  0.87193835     0.93300
O176        O  0.33347753  0.09522597  0.87568327    -0.82800
O177        O  0.15380394  0.35176114  0.88324191    -0.82200
C178        C  0.12084681  0.27717432  0.83726500     0.97100
O179        O  0.13906691  0.28657765  0.83573816    -0.71400
O180        O  0.13250432  0.32755330  0.82672009    -0.74900
Al181      Al  0.15011999  0.31311995  0.84741351     1.49000
C182        C  0.12629955  0.34719539  0.82822852     0.92400
O183        O  0.09255510  0.34106712  0.87175852    -0.81200
O184        O  0.12387616  0.30289072  0.90993058    -0.74700
Al185      Al  0.12352756  0.34475311  0.87677124     1.90100
O186        O  0.08893303  0.30664207  0.88170098    -0.73800
O187        O  0.14367857  0.27717665  0.88190458    -0.73600
O188        O  0.10841550  0.28116040  0.85331183    -0.79300
O189        O  0.16928525  0.29778673  0.86677352    -0.77500
O190        O  0.13012845  0.31729835  0.86848261    -1.13600
O191        O  0.16702468  0.33880671  0.85253579    -0.72800
C192        C  0.16938723  0.35001757  0.86966661     0.97900
C193        C  0.08054886  0.32461714  0.87583542     0.94300
Al194      Al  0.11731490  0.29405951  0.88073859     1.55600
O195        O  0.12517314  0.35675755  0.84683195    -0.77500
C196        C  0.16371448  0.28117644  0.87795700     0.98400
C197        C  0.12252693  0.32127251  0.91933263     0.93300
O198        O  0.12047239  0.33850856  0.90794269    -0.82800
O199        O  0.34232701  0.38296967  0.85181318    -0.82200
C200        C  0.37907148  0.33455592  0.78038742     0.97100
O201        O  0.36118649  0.33164470  0.79021496    -0.71400
O202        O  0.36562643  0.32570618  0.83178948    -0.74900
Al203      Al  0.34793365  0.34453329  0.81526883     1.49000
C204        C  0.37001363  0.32840058  0.85176811     0.92400
O205        O  0.40336324  0.37094897  0.84269745    -0.81200
O206        O  0.37067961  0.40798778  0.80302141    -0.74700
Al207      Al  0.37263947  0.37633583  0.84592989     1.90100
O208        O  0.40733642  0.38168155  0.80833136    -0.73800
O209        O  0.35284386  0.37820245  0.77739429    -0.73600
O210        O  0.38967001  0.35206389  0.78306045    -0.79300
O211        O  0.32846939  0.36124994  0.79793599    -0.77500
O212        O  0.36663187  0.36675620  0.81865464    -1.13600
O213        O  0.32968127  0.35146340  0.83985653    -0.72800
C214        C  0.32698947  0.36906190  0.85038245     0.97900
C215        C  0.41547583  0.37551297  0.82642442     0.94300
Al216      Al  0.37904586  0.37902162  0.79508020     1.55600
O217        O  0.37037372  0.34750379  0.86010411    -0.77500
C218        C  0.33320877  0.37236305  0.78110195     0.98400
C219        C  0.37309573  0.41785703  0.82106179     0.93300
O220        O  0.37628733  0.40696308  0.83841872    -0.82800
O221        O  0.14672008  0.34295642  0.61937933    -0.82200
C222        C  0.22220632  0.37539789  0.66291214     0.97100
O223        O  0.21383532  0.35661773  0.66361799    -0.71400
O224        O  0.17358164  0.36384196  0.67481818    -0.74900
Al225      Al  0.18656721  0.34610674  0.65337094     1.49000
C226        C  0.15421124  0.37096673  0.67420895     0.92400
O227        O  0.15864010  0.40438091  0.62980144    -0.81200
O228        O  0.19523156  0.37155486  0.59128556    -0.74700
Al229      Al  0.15436983  0.37327867  0.62555204     1.90100
O230        O  0.19274771  0.40727505  0.61843265    -0.73800
O231        O  0.22207243  0.35187256  0.61846014    -0.73600
O232        O  0.21812236  0.38792978  0.64701520    -0.79300
O233        O  0.20033690  0.32702986  0.63318140    -0.77500
O234        O  0.18195258  0.36628785  0.63273811    -1.13600
O235        O  0.16032727  0.32953765  0.64950570    -0.72800
C236        C  0.14920246  0.32703409  0.63236916     0.97900
C237        C  0.17495250  0.41608113  0.62433491     0.94300
Al238      Al  0.20505535  0.37865070  0.61979006     1.55600
O239        O  0.14375662  0.37221224  0.65609853    -0.77500
C240        C  0.21721683  0.33193864  0.62213125     0.98400
C241        C  0.17656849  0.37329255  0.58252723     0.93300
O242        O  0.15965503  0.37593713  0.59432386    -0.82800
O243        O  0.38143716  0.15074045  0.65620318    -0.82200
C244        C  0.33435464  0.22262019  0.62169365     0.97100
O245        O  0.33338895  0.21498766  0.64084259    -0.71400
O246        O  0.32399720  0.17397094  0.63670253    -0.74900
Al247      Al  0.34520184  0.18905852  0.65310412     1.49000
C248        C  0.32522622  0.15420021  0.63090480     0.92400
O249        O  0.36687526  0.16008549  0.59568099    -0.81200
O250        O  0.40671738  0.19854571  0.62722969    -0.74700
Al251      Al  0.37343217  0.15684747  0.62627847     1.90100
O252        O  0.37968297  0.19353786  0.59132022    -0.73800
O253        O  0.37894786  0.22568298  0.64559824    -0.73600
O254        O  0.35078201  0.21892776  0.60973772    -0.79300
O255        O  0.36480929  0.20474695  0.67131021    -0.77500
O256        O  0.36565719  0.18437911  0.63279471    -1.13600
O257        O  0.35143657  0.16415784  0.67063047    -0.72800
C258        C  0.36889497  0.15338701  0.67248231     0.97900
C259        C  0.37234825  0.17581845  0.58331199     0.94300
Al260      Al  0.37807385  0.20724394  0.61954486     1.55600
O261        O  0.34371954  0.14459319  0.62964264    -0.77500
C262        C  0.37573694  0.22142764  0.66577124     0.98400
C263        C  0.41576310  0.18014423  0.62476296     0.93300
O264        O  0.40421982  0.16315625  0.62152408    -0.82800
O265        O  0.34889724  0.84408388  0.88363419    -0.82200
C266        C  0.27452862  0.87795154  0.83815642     0.97100
O267        O  0.28219480  0.85884079  0.83778767    -0.71400
O268        O  0.32311146  0.86325477  0.82783270    -0.74900
Al269      Al  0.30853920  0.84706799  0.84939678     1.49000
C270        C  0.34247152  0.87040453  0.82874109     0.92400
O271        O  0.33776727  0.90545832  0.87207553    -0.81200
O272        O  0.29949608  0.87415625  0.91074465    -0.74700
Al273      Al  0.34127247  0.87428025  0.87714462     1.90100
O274        O  0.30385336  0.90921646  0.88328597    -0.73800
O275        O  0.27237201  0.85542987  0.88309650    -0.73600
O276        O  0.27861911  0.89044473  0.85416727    -0.79300
O277        O  0.29316735  0.82920038  0.86963017    -0.77500
O278        O  0.31357859  0.86765297  0.86962744    -1.13600
O279        O  0.33365204  0.82948808  0.85470149    -0.72800
C280        C  0.34641508  0.82799542  0.87077280     0.97900
C281        C  0.32167006  0.91762851  0.87697436     0.94300
Al282      Al  0.29063010  0.88116152  0.88186526     1.55600
O283        O  0.35243815  0.87245886  0.84700494    -0.77500
C284        C  0.27632326  0.83524570  0.88012931     0.98400
C285        C  0.31806648  0.87525650  0.91983604     0.93300
O286        O  0.33530310  0.87730586  0.90832524    -0.82800
O287        O  0.11782436  0.64963716  0.84754680    -0.82200
C288        C  0.16028240  0.72452427  0.88215142     0.97100
O289        O  0.16316831  0.71571085  0.86368993    -0.71400
O290        O  0.17376026  0.67524266  0.86944623    -0.74900
Al291      Al  0.15301000  0.68902841  0.85144961     1.49000
C292        C  0.17308416  0.65519895  0.87413778     0.92400
O293        O  0.13029720  0.66110441  0.90813970    -0.81200
O294        O  0.08997077  0.69641141  0.87339720    -0.74700
Al295      Al  0.12465932  0.65655009  0.87757990     1.90100
O296        O  0.11505777  0.69376264  0.91092885    -0.73800
O297        O  0.11734845  0.72432534  0.85604014    -0.73600
O298        O  0.14345517  0.72036309  0.89334894    -0.79300
O299        O  0.13408396  0.70352778  0.83177646    -0.77500
O300        O  0.13166987  0.68417849  0.87067660    -1.13600
O301        O  0.14833556  0.66326870  0.83423312    -0.72800
C302        C  0.13103508  0.65223556  0.83175888     0.97900
C303        C  0.12326699  0.67686213  0.91974753     0.94300
Al304      Al  0.11752759  0.70678777  0.88248926     1.55600
O305        O  0.15480392  0.64510068  0.87497333    -0.77500
C306        C  0.12229288  0.71992068  0.83626483     0.98400
C307        C  0.08143709  0.67794703  0.87687609     0.93300
O308        O  0.09343510  0.66169435  0.88163433    -0.82800
O309        O  0.15111548  0.88095715  0.64807485    -0.82200
C310        C  0.12106472  0.83542550  0.72366024     0.97100
O311        O  0.13934186  0.83408612  0.71421590    -0.71400
O312        O  0.13152113  0.82461873  0.67356613    -0.74900
Al313      Al  0.14966877  0.84540922  0.68723440     1.49000
C314        C  0.12461214  0.82593359  0.65413524     0.92400
O315        O  0.09093342  0.86890405  0.66199248    -0.81200
O316        O  0.12540216  0.90754207  0.69813573    -0.74700
Al317      Al  0.12146256  0.87414441  0.65666805     1.90100
O318        O  0.08893755  0.88090585  0.69599779    -0.73800
O319        O  0.14538559  0.87955014  0.72392043    -0.73600
O320        O  0.10891277  0.85179927  0.72047576    -0.79300
O321        O  0.16965628  0.86461931  0.70172612    -0.77500
O322        O  0.12958553  0.86632149  0.68384609    -1.13600
O323        O  0.16535903  0.85069711  0.66082552    -0.72800
C324        C  0.16684529  0.86758476  0.64914332     0.97900
C325        C  0.07964812  0.87464515  0.67847719     0.94300
Al326      Al  0.11810746  0.87896593  0.70759256     1.55600
O327        O  0.12291175  0.84438436  0.64459437    -0.77500
C328        C  0.16521429  0.87544152  0.71892214     0.98400
C329        C  0.12228399  0.91651553  0.67976679     0.93300
O330        O  0.11829322  0.90496373  0.66295749    -0.82800
O331        O  0.38296761  0.65566140  0.84984249    -0.82200
C332        C  0.34013343  0.62368075  0.77389308     0.97100
O333        O  0.34001922  0.64298501  0.78116897    -0.71400
O334        O  0.32766366  0.63849278  0.82135771    -0.74900
Al335      Al  0.35036047  0.65441212  0.80810553     1.49000
C336        C  0.32743444  0.63117887  0.84065791     0.92400
O337        O  0.36978674  0.59512493  0.83647675    -0.81200
O338        O  0.41139819  0.62793586  0.80133639    -0.74700
Al339      Al  0.37567752  0.62587796  0.84130682     1.90100
O340        O  0.38448321  0.59191989  0.80375172    -0.73800
O341        O  0.38466248  0.64639125  0.77258989    -0.73600
O342        O  0.35592807  0.61102900  0.77808565    -0.79300
O343        O  0.37146420  0.67219435  0.79398816    -0.77500
O344        O  0.36983310  0.63340700  0.81354070    -1.13600
O345        O  0.35521782  0.67147011  0.83374204    -0.72800
C346        C  0.37117487  0.67238338  0.84671908     0.97900
C347        C  0.37651240  0.58322227  0.82078753     0.94300
Al348      Al  0.38313124  0.62038929  0.79088503     1.55600
O349        O  0.34518882  0.62849526  0.85131710    -0.77500
C350        C  0.38152397  0.66653734  0.77676142     0.98400
C351        C  0.41927139  0.62535043  0.82036499     0.93300
O352        O  0.40677795  0.62180433  0.83664175    -0.82800
O353        O  0.33985107  0.85344579  0.61985959    -0.82200
C354        C  0.37641984  0.77897598  0.66145100     0.97100
O355        O  0.35773705  0.78720871  0.66447742    -0.71400
O356        O  0.36247895  0.82781136  0.67492043    -0.74900
Al357      Al  0.34459607  0.81349843  0.65441050     1.49000
C358        C  0.36818510  0.84759447  0.67408142     0.92400
O359        O  0.40084816  0.84209384  0.63060006    -0.81200
O360        O  0.36547094  0.80604135  0.59092610    -0.74700
Al361      Al  0.37000681  0.84647397  0.62564320     1.90100
O362        O  0.40323025  0.80986683  0.61463393    -0.73800
O363        O  0.35010815  0.77796644  0.61954297    -0.73600
O364        O  0.38739582  0.78357781  0.64452796    -0.79300
O365        O  0.32493449  0.79805112  0.63573484    -0.77500
O366        O  0.36342182  0.81878655  0.63274329    -1.13600
O367        O  0.32678065  0.83879599  0.65002459    -0.72800
C368        C  0.32422456  0.85044154  0.63317602     0.97900
C369        C  0.41228813  0.82633852  0.62335626     0.94300
Al370      Al  0.37550975  0.79634041  0.61850978     1.55600
O371        O  0.36852660  0.85778130  0.65586980    -0.77500
C372        C  0.33030362  0.78127603  0.62478593     0.98400
C373        C  0.36889600  0.82445910  0.58221838     0.93300
O374        O  0.37292672  0.84112535  0.59408884    -0.82800
O375        O  0.14754717  0.61888247  0.65848210    -0.82200
C376        C  0.22227490  0.66132759  0.62285799     0.97100
O377        O  0.21374253  0.66363750  0.64145781    -0.71400
O378        O  0.17326377  0.67381438  0.63479397    -0.74900
Al379      Al  0.18698240  0.65355591  0.65323343     1.49000
C380        C  0.15346914  0.67280487  0.62902339     0.92400
O381        O  0.15841924  0.62862590  0.59675759    -0.81200
O382        O  0.19527131  0.59004831  0.63055450    -0.74700
Al383      Al  0.15449957  0.62434082  0.62784766     1.90100
O384        O  0.19202169  0.61589706  0.59354198    -0.73800
O385        O  0.22234947  0.61829839  0.64847433    -0.73600
O386        O  0.21805650  0.64470803  0.61134514    -0.79300
O387        O  0.20161322  0.63483112  0.67309136    -0.77500
O388        O  0.18215042  0.63186783  0.63420438    -1.13600
O389        O  0.16117131  0.64984666  0.67040121    -0.72800
C390        C  0.14959613  0.63309031  0.67352594     0.97900
C391        C  0.17450337  0.62284455  0.58489240     0.94300
Al392      Al  0.20494225  0.61826542  0.62200977     1.55600
O393        O  0.14323192  0.65457247  0.62892944    -0.77500
C394        C  0.21829166  0.62347393  0.66828582     0.98400
C395        C  0.17670422  0.58121183  0.62830747     0.93300
O396        O  0.15990954  0.59301268  0.62510983    -0.82800
O397        O  0.87714301  0.84302940  0.64912083    -0.82200
C398        C  0.83595301  0.87820575  0.72485479     0.97100
O399        O  0.83340523  0.85936846  0.71673702    -0.71400
O400        O  0.82188899  0.86398276  0.67622152    -0.74900
Al401      Al  0.84329054  0.84670321  0.68996648     1.49000
C402        C  0.82214457  0.86959023  0.65635144     0.92400
O403        O  0.86539984  0.90356021  0.66114526    -0.81200
O404        O  0.90583249  0.86904579  0.69645492    -0.74700
Al405      Al  0.87077731  0.87296973  0.65658692     1.90100
O406        O  0.88128651  0.90642110  0.69342301    -0.73800
O407        O  0.87874508  0.85259555  0.72511440    -0.73600
O408        O  0.85253257  0.88955684  0.72012387    -0.79300
O409        O  0.86294677  0.82759277  0.70453662    -0.77500
O410        O  0.86423905  0.86615388  0.68442206    -1.13600
O411        O  0.84765451  0.82918275  0.66436453    -0.72800
C412        C  0.86418859  0.82713881  0.65213114     0.97900
C413        C  0.87278106  0.91520579  0.67669920     0.94300
Al414      Al  0.87848750  0.87840786  0.70681515     1.55600
O415        O  0.84022738  0.87075719  0.64586215    -0.77500
C416        C  0.87452268  0.83266431  0.72097644     0.98400
C417        C  0.91447185  0.87238552  0.67797846     0.93300
O418        O  0.90245107  0.87661467  0.66145954    -0.82800
O419        O  0.84468514  0.64647205  0.88076501    -0.82200
C420        C  0.87937885  0.72106934  0.83682706     0.97100
O421        O  0.86071000  0.71251719  0.83489311    -0.71400
O422        O  0.86570209  0.67183784  0.82486203    -0.74900
Al423      Al  0.84835390  0.68626658  0.84584418     1.49000
C424        C  0.87142578  0.65208030  0.82578519     0.92400
O425        O  0.90532474  0.65774479  0.86934518    -0.81200
O426        O  0.87144509  0.69453889  0.90867736    -0.74700
Al427      Al  0.87462104  0.65376215  0.87436191     1.90100
O428        O  0.90848513  0.69106856  0.88285167    -0.73800
O429        O  0.85426191  0.72245725  0.88055389    -0.73600
O430        O  0.89093295  0.71719101  0.85356271    -0.79300
O431        O  0.82923518  0.70173365  0.86493332    -0.77500
O432        O  0.86788890  0.68144695  0.86697250    -1.13600
O433        O  0.83082711  0.66087780  0.85097434    -0.72800
C434        C  0.82897598  0.64867539  0.86751040     0.97900
C435        C  0.91708805  0.67360993  0.87568521     0.94300
Al436      Al  0.88028016  0.70429472  0.88041086     1.55600
O437        O  0.87274073  0.64225380  0.84417347    -0.77500
C438        C  0.83436771  0.71869633  0.87575614     0.98400
C439        C  0.87352424  0.67591930  0.91747796     0.93300
O440        O  0.87774828  0.65929008  0.90569221    -0.82800
O441        O  0.64712780  0.88069437  0.84524140    -0.82200
C442        C  0.72412053  0.83803275  0.87747072     0.97100
O443        O  0.71545470  0.83720163  0.85876942    -0.71400
O444        O  0.67484778  0.82525488  0.86258532    -0.74900
Al445      Al  0.68883688  0.84803455  0.84712489     1.49000
C446        C  0.65557029  0.82519603  0.87007442     0.92400
O447        O  0.65898434  0.86770389  0.90610703    -0.81200
O448        O  0.69509590  0.90884873  0.87596838    -0.74700
Al449      Al  0.65503869  0.87354240  0.87518170     1.90100
O450        O  0.69252603  0.87998586  0.91037233    -0.73800
O451        O  0.72369088  0.88352948  0.85617477    -0.73600
O452        O  0.71956872  0.85352023  0.89039856    -0.79300
O453        O  0.70361396  0.86912933  0.82987950    -0.77500
O454        O  0.68310073  0.86743436  0.86830276    -1.13600
O455        O  0.66375519  0.85329644  0.82936074    -0.72800
C456        C  0.65077311  0.86921540  0.82836710     0.97900
C457        C  0.67497352  0.87254352  0.91845938     0.94300
Al458      Al  0.70561492  0.88047282  0.88206173     1.55600
O459        O  0.64502549  0.84303157  0.87261940    -0.77500
C460        C  0.72001829  0.88026455  0.83594513     0.98400
C461        C  0.67617670  0.91712359  0.87705111     0.93300
O462        O  0.65946763  0.90488873  0.87899772    -0.82800
O463        O  0.84533073  0.65492557  0.61614573    -0.82200
C464        C  0.76963468  0.62144461  0.65891224     0.97100
O465        O  0.77750481  0.64047885  0.65963156    -0.71400
O466        O  0.81797812  0.63510762  0.67156264    -0.74900
Al467      Al  0.80459502  0.65179511  0.64958600     1.49000
C468        C  0.83769461  0.62888849  0.67141637     0.92400
O469        O  0.83388231  0.59396537  0.62813355    -0.81200
O470        O  0.79741828  0.62598510  0.58786011    -0.74700
Al471      Al  0.83782574  0.62481029  0.62285251     1.90100
O472        O  0.80057135  0.58995052  0.61497552    -0.73800
O473        O  0.76957850  0.64430539  0.61472936    -0.73600
O474        O  0.77430982  0.60879859  0.64320636    -0.79300
O475        O  0.79061764  0.67003318  0.62890240    -0.77500
O476        O  0.81001445  0.63140116  0.62943789    -1.13600
O477        O  0.83028019  0.66880998  0.64554082    -0.72800
C478        C  0.84283793  0.67071978  0.62932954     0.97900
C479        C  0.81809647  0.58175054  0.62234603     0.94300
Al480      Al  0.78742754  0.61829005  0.61617137     1.55600
O481        O  0.84827617  0.62712681  0.65341451    -0.77500
C482        C  0.77387574  0.66440253  0.61803428     0.98400
C483        C  0.81633234  0.62474648  0.57957577     0.93300
O484        O  0.83290120  0.62138067  0.59165755    -0.82800
O485        O  0.65637103  0.61489124  0.85376589    -0.82200
C486        C  0.61833493  0.65958829  0.78101563     0.97100
O487        O  0.63688169  0.66248923  0.78958326    -0.71400
O488        O  0.63502988  0.67122558  0.83084647    -0.74900
Al489      Al  0.65108435  0.65068206  0.81466967     1.49000
C490        C  0.62972588  0.66995127  0.85074577     0.92400
O491        O  0.59536355  0.62713568  0.84533635    -0.81200
O492        O  0.62743640  0.58798258  0.80667894    -0.74700
Al493      Al  0.62620376  0.62166362  0.84805530     1.90100
O494        O  0.59091823  0.61370348  0.81203839    -0.73800
O495        O  0.64349720  0.61585800  0.77832647    -0.73600
O496        O  0.60739146  0.64256072  0.78512660    -0.79300
O497        O  0.66914221  0.63223828  0.79755125    -0.77500
O498        O  0.63179201  0.62944093  0.82009226    -1.13600
O499        O  0.67016725  0.64440155  0.83858953    -0.72800
C500        C  0.67235858  0.62758026  0.85032356     0.97900
C501        C  0.58302642  0.62120972  0.82971028     0.94300
Al502      Al  0.61844883  0.61608198  0.79761650     1.55600
O503        O  0.62887115  0.65145793  0.86031150    -0.77500
C504        C  0.66342275  0.62093321  0.78115148     0.98400
C505        C  0.62546927  0.57898083  0.82517728     0.93300
O506        O  0.62236567  0.59057116  0.84218370    -0.82800
O507        O  0.61347013  0.84762208  0.65725552    -0.82200
C508        C  0.65534825  0.77204827  0.62253251     0.97100
O509        O  0.65720460  0.77992078  0.64158019    -0.71400
O510        O  0.66840635  0.82053970  0.63670195    -0.74900
Al511      Al  0.64695973  0.80656165  0.65401160     1.49000
C512        C  0.66768865  0.84002549  0.62995694     0.92400
O513        O  0.62366421  0.83450464  0.59644112    -0.81200
O514        O  0.58464056  0.79835094  0.63129678    -0.74700
Al515      Al  0.61917088  0.83916886  0.62729023     1.90100
O516        O  0.60875647  0.80195708  0.59347774    -0.73800
O517        O  0.61287016  0.77049348  0.64771225    -0.73600
O518        O  0.63893705  0.77648989  0.61079456    -0.79300
O519        O  0.62722452  0.79166538  0.67316261    -0.77500
O520        O  0.62607981  0.81160338  0.63428822    -1.13600
O521        O  0.64250674  0.83223043  0.67144212    -0.72800
C522        C  0.62677579  0.84547593  0.67295243     0.97900
C523        C  0.61609004  0.81920191  0.58463079     0.94300
Al524      Al  0.61239644  0.78881471  0.62185418     1.55600
O525        O  0.64946533  0.85004745  0.62827261    -0.77500
C526        C  0.61681173  0.77453600  0.66776747     0.98400
C527        C  0.57609906  0.81705572  0.62935292     0.93300
O528        O  0.58788959  0.83370450  0.62516900    -0.82800
O529        O  0.84296750  0.34643242  0.11979538    -0.82200
C530        C  0.88094444  0.27521881  0.16549850     0.97100
O531        O  0.86240299  0.28372293  0.16858216    -0.71400
O532        O  0.86572289  0.32488006  0.17660955    -0.74900
Al533      Al  0.84839232  0.30875289  0.15689660     1.49000
C534        C  0.87059957  0.34478564  0.17463657     0.92400
O535        O  0.90384618  0.33709557  0.13198838    -0.81200
O536        O  0.86957065  0.29870884  0.09336818    -0.74700
Al537      Al  0.87308362  0.34055917  0.12646862     1.90100
O538        O  0.90719059  0.30410320  0.11765496    -0.73800
O539        O  0.85387877  0.27138431  0.12301189    -0.73600
O540        O  0.89133123  0.27850583  0.14794606    -0.79300
O541        O  0.82923486  0.29181101  0.13951486    -0.77500
O542        O  0.86702357  0.31310512  0.13488480    -1.13600
O543        O  0.82975353  0.33304473  0.15051685    -0.72800
C544        C  0.82728247  0.34391504  0.13310382     0.97900
C545        C  0.91574496  0.32135853  0.12547289     0.94300
Al546      Al  0.87942308  0.29017244  0.12153752     1.55600
O547        O  0.87079320  0.35374409  0.15582792    -0.77500
C548        C  0.83417145  0.27492334  0.12863361     0.98400
C549        C  0.87254056  0.31700540  0.08423391     0.93300
O550        O  0.87659141  0.33390920  0.09561714    -0.82800
O551        O  0.84372123  0.34326597  0.38066291    -0.82200
C552        C  0.77164115  0.38360824  0.33770716     0.97100
O553        O  0.78042633  0.36542734  0.33377202    -0.71400
O554        O  0.82146105  0.37030768  0.32539231    -0.74900
Al555      Al  0.80610671  0.35167510  0.34433049     1.49000
C556        C  0.84160005  0.37440163  0.32699862     0.92400
O557        O  0.83577620  0.40519149  0.37145937    -0.81200
O558        O  0.79720486  0.37151623  0.40950218    -0.74700
Al559      Al  0.83854335  0.37416714  0.37554198     1.90100
O560        O  0.80224870  0.40920791  0.38455360    -0.73800
O561        O  0.76993950  0.35523090  0.38007939    -0.73600
O562        O  0.77539493  0.39346330  0.35544443    -0.79300
O563        O  0.79004771  0.33183503  0.36125469    -0.77500
O564        O  0.81084727  0.36917949  0.36721378    -1.13600
O565        O  0.83091097  0.33290453  0.34869243    -0.72800
C566        C  0.84147426  0.32870982  0.36597186     0.97900
C567        C  0.82000179  0.41737605  0.37736242     0.94300
Al568      Al  0.78818897  0.38130795  0.38128962     1.55600
O569        O  0.85114480  0.37302693  0.34555771    -0.77500
C570        C  0.77370792  0.33587681  0.37330799     0.98400
C571        C  0.81565341  0.37354345  0.41860876     0.93300
O572        O  0.83255064  0.37677606  0.40689621    -0.82800
O573        O  0.87716374  0.15444810  0.35087580    -0.82200
C574        C  0.83655758  0.11815906  0.27544297     0.97100
O575        O  0.83455657  0.13714270  0.28321788    -0.71400
O576        O  0.82235171  0.13217865  0.32364331    -0.74900
Al577      Al  0.84393087  0.14962265  0.31000197     1.49000
C578        C  0.82259211  0.12638226  0.34348631     0.92400
O579        O  0.86656263  0.09282423  0.33959929    -0.81200
O580        O  0.90717254  0.12658870  0.30405254    -0.74700
Al581      Al  0.87128554  0.12395222  0.34376896     1.90100
O582        O  0.88181717  0.08995769  0.30703951    -0.73800
O583        O  0.87987123  0.14350042  0.27536385    -0.73600
O584        O  0.85306113  0.10666567  0.28010118    -0.79300
O585        O  0.86375222  0.16868954  0.29556832    -0.77500
O586        O  0.86497137  0.13028909  0.31583045    -1.13600
O587        O  0.84750379  0.16735935  0.33547069    -0.72800
C588        C  0.86397222  0.17010548  0.34755761     0.97900
C589        C  0.87396382  0.08109909  0.32402739     0.94300
Al590      Al  0.87932164  0.11774968  0.29357684     1.55600
O591        O  0.84060502  0.12562853  0.35408777    -0.77500
C592        C  0.87552225  0.16343505  0.27929828     0.98400
C593        C  0.91533864  0.12367409  0.32286688     0.93300
O594        O  0.90289736  0.12075668  0.33934657    -0.82800
O595        O  0.64293457  0.11670350  0.15576191    -0.82200
C596        C  0.71900272  0.16066167  0.12458689     0.97100
O597        O  0.71007460  0.16214612  0.14316096    -0.71400
O598        O  0.66953074  0.17247705  0.13804309    -0.74900
Al599      Al  0.68356643  0.15092389  0.15473021     1.49000
C600        C  0.65037088  0.17165715  0.13047329     0.92400
O601        O  0.65680998  0.12863816  0.09543986    -0.81200
O602        O  0.69274020  0.08957365  0.13018084    -0.74700
Al603      Al  0.65172175  0.12337674  0.12620374     1.90100
O604        O  0.68985600  0.11481881  0.09338404    -0.73800
O605        O  0.72014132  0.11758790  0.14784861    -0.73600
O606        O  0.71485560  0.14469029  0.11204881    -0.79300
O607        O  0.69873958  0.13114205  0.17346627    -0.77500
O608        O  0.67912847  0.13059601  0.13414897    -1.13600
O609        O  0.65786347  0.14526539  0.17154932    -0.72800
C610        C  0.64508202  0.12910053  0.17220931     0.97900
C611        C  0.67275506  0.12176263  0.08405882     0.94300
Al612      Al  0.70230933  0.11767230  0.12186458     1.55600
O613        O  0.64054328  0.15342781  0.12785360    -0.77500
C614        C  0.71616561  0.12135694  0.16790106     0.98400
C615        C  0.67427401  0.08061890  0.12743166     0.93300
O616        O  0.65750700  0.09216240  0.12317638    -0.82800
O617        O  0.65558463  0.38183787  0.14958012    -0.82200
C618        C  0.62170315  0.33923687  0.22548980     0.97100
O619        O  0.64081805  0.33853324  0.21777642    -0.71400
O620        O  0.63658227  0.32649870  0.17695446    -0.74900
Al621      Al  0.65253510  0.34889436  0.19075500     1.49000
C622        C  0.63004628  0.32653449  0.15728569     0.92400
O623        O  0.59481716  0.36890368  0.15971088    -0.81200
O624        O  0.62485441  0.40947572  0.19720583    -0.74700
Al625      Al  0.62560408  0.37476900  0.15661908     1.90100
O626        O  0.59020715  0.38167423  0.19307327    -0.73800
O627        O  0.64306674  0.38364647  0.22537954    -0.73600
O628        O  0.60871835  0.35423112  0.21987880    -0.79300
O629        O  0.66996629  0.37036151  0.20522696    -0.77500
O630        O  0.63178594  0.36839652  0.18467444    -1.13600
O631        O  0.66999192  0.35321049  0.16539561    -0.72800
C632        C  0.67155072  0.36905696  0.15240443     0.97900
C633        C  0.58236756  0.37430538  0.17539309     0.94300
Al634      Al  0.61780671  0.38125574  0.20691094     1.55600
O635        O  0.62839692  0.34433506  0.14649272    -0.77500
C636        C  0.66336141  0.38150217  0.22150258     0.98400
C637        C  0.62397863  0.41795729  0.17840920     0.93300
O638        O  0.62166865  0.40601114  0.16148741    -0.82800
O639        O  0.61224003  0.14510593  0.34440748    -0.82200
C640        C  0.66094905  0.21891145  0.37503977     0.97100
O641        O  0.66179544  0.20939862  0.35672067    -0.71400
O642        O  0.66973829  0.16813366  0.36094309    -0.74900
Al643      Al  0.64864276  0.18389756  0.34503563     1.49000
C644        C  0.66807831  0.14915356  0.36884245     0.92400
O645        O  0.62626247  0.15783670  0.40446360    -0.81200
O646        O  0.58780182  0.19604877  0.37186055    -0.74700
Al647      Al  0.62005941  0.15328262  0.37386181     1.90100
O648        O  0.61492439  0.19176776  0.40731235    -0.73800
O649        O  0.61672535  0.22190353  0.35307066    -0.73600
O650        O  0.64492232  0.21573758  0.38778513    -0.79300
O651        O  0.62947858  0.20065361  0.32689885    -0.77500
O652        O  0.62849864  0.18041644  0.36603300    -1.13600
O653        O  0.64090961  0.15906495  0.32797133    -0.72800
C654        C  0.62412052  0.14712986  0.32758928     0.97900
C655        C  0.62108125  0.17415905  0.41617788     0.94300
Al656      Al  0.61700982  0.20417976  0.37891045     1.55600
O657        O  0.64939312  0.14033046  0.37167192    -0.77500
C658        C  0.62016836  0.21817749  0.33293654     0.98400
C659        C  0.57829381  0.17781006  0.37429889     0.93300
O660        O  0.58939750  0.16057377  0.37756079    -0.82800
O661        O  0.84316720  0.88131770  0.35310681    -0.82200
C662        C  0.87650124  0.83445892  0.27965425     0.97100
O663        O  0.85791440  0.83296533  0.28848593    -0.71400
O664        O  0.86385064  0.82472442  0.32941283    -0.74900
Al665      Al  0.84637400  0.84496682  0.31486127     1.49000
C666        C  0.87064826  0.82637133  0.34882019     0.92400
O667        O  0.90419683  0.86975794  0.34197464    -0.81200
O668        O  0.87107632  0.90701505  0.30353906    -0.74700
Al669      Al  0.87323620  0.87459352  0.34593321     1.90100
O670        O  0.90731587  0.88050914  0.30767225    -0.73800
O671        O  0.85193652  0.87836485  0.27764487    -0.73600
O672        O  0.88836583  0.85098819  0.28312798    -0.79300
O673        O  0.82725639  0.86367569  0.29952939    -0.77500
O674        O  0.86628524  0.86607806  0.31861510    -1.13600
O675        O  0.82927808  0.85080640  0.34051785    -0.72800
C676        C  0.82718837  0.86829373  0.35126489     0.97900
C677        C  0.91603023  0.87487879  0.32565514     0.94300
Al678      Al  0.87863906  0.87825946  0.29504609     1.55600
O679        O  0.87176521  0.84491984  0.35839075    -0.77500
C680        C  0.83204264  0.87418355  0.28233517     0.98400
C681        C  0.87311625  0.91640089  0.32187472     0.93300
O682        O  0.87614766  0.90531101  0.33914348    -0.82800
O683        O  0.88211912  0.65072543  0.15548238    -0.82200
C684        C  0.83561708  0.72368240  0.12202883     0.97100
O685        O  0.83411055  0.71482757  0.14057158    -0.71400
O686        O  0.82455864  0.67373358  0.13497160    -0.74900
Al687      Al  0.84559994  0.68848556  0.15208872     1.49000
C688        C  0.82586631  0.65374762  0.12990746     0.92400
O689        O  0.86808506  0.66005208  0.09483095    -0.81200
O690        O  0.90754102  0.69869591  0.12601472    -0.74700
Al691      Al  0.87439467  0.65682001  0.12542593     1.90100
O692        O  0.87968133  0.69400689  0.09041160    -0.73800
O693        O  0.88002611  0.72498771  0.14573714    -0.73600
O694        O  0.85176167  0.71982809  0.10981559    -0.79300
O695        O  0.86498005  0.70372146  0.17076829    -0.77500
O696        O  0.86636171  0.68426376  0.13195757    -1.13600
O697        O  0.85136537  0.66303230  0.16927460    -0.72800
C698        C  0.86894737  0.65249686  0.17140949     0.97900
C699        C  0.87293511  0.67597823  0.08244056     0.94300
Al700      Al  0.87878550  0.70737039  0.11904761     1.55600
O701        O  0.84451991  0.64432958  0.12869368    -0.77500
C702        C  0.87617517  0.72041690  0.16576467     0.98400
C703        C  0.91681837  0.68051582  0.12323011     0.93300
O704        O  0.90538376  0.66331799  0.12060892    -0.82800
O705        O  0.64722499  0.84310522  0.12006426    -0.82200
C706        C  0.72134501  0.87763962  0.16454758     0.97100
O707        O  0.71358332  0.85857441  0.16508039    -0.71400
O708        O  0.67281175  0.86486715  0.17573708    -0.74900
Al709      Al  0.68674932  0.84721370  0.15463008     1.49000
C710        C  0.65319021  0.87128595  0.17459043     0.92400
O711        O  0.65806108  0.90413062  0.13066862    -0.81200
O712        O  0.69606517  0.87133931  0.09245153    -0.74700
Al713      Al  0.65445884  0.87326562  0.12604898     1.90100
O714        O  0.69181251  0.90775428  0.11868935    -0.73800
O715        O  0.72293406  0.85375888  0.12076977    -0.73600
O716        O  0.71715152  0.89001633  0.14850803    -0.79300
O717        O  0.70139276  0.82832747  0.13477402    -0.77500
O718        O  0.68201923  0.86692708  0.13374921    -1.13600
O719        O  0.66099133  0.83015909  0.15042263    -0.72800
C720        C  0.64902439  0.82781461  0.13382636     0.97900
C721        C  0.67405919  0.91614925  0.12526877     0.94300
Al722      Al  0.70501862  0.87973059  0.12103718     1.55600
O723        O  0.64318350  0.87211819  0.15623706    -0.77500
C724        C  0.71846091  0.83373639  0.12421118     0.98400
C725        C  0.67746865  0.87211037  0.08339077     0.93300
O726        O  0.66040821  0.87552323  0.09483063    -0.82800
O727        O  0.65421157  0.85218244  0.38374242    -0.82200
C728        C  0.62235718  0.77523584  0.34108361     0.97100
O729        O  0.64024905  0.78507437  0.33823349    -0.71400
O730        O  0.63398304  0.82558097  0.32763011    -0.74900
Al731      Al  0.65164831  0.81200871  0.34888055     1.49000
C732        C  0.62801522  0.84530694  0.32828669     0.92400
O733        O  0.59394600  0.83911906  0.37010206    -0.81200
O734        O  0.62640501  0.80443265  0.41202332    -0.74700
Al735      Al  0.62435078  0.84425369  0.37650303     1.90100
O736        O  0.59104977  0.80598458  0.38415189    -0.73800
O737        O  0.64693380  0.77697314  0.38546047    -0.73600
O738        O  0.61078228  0.77918643  0.35766824    -0.79300
O739        O  0.67098318  0.79764819  0.36820719    -0.77500
O740        O  0.63187176  0.81659067  0.36987952    -1.13600
O741        O  0.66842397  0.83806822  0.35382831    -0.72800
C742        C  0.67009838  0.85025958  0.37047720     0.97900
C743        C  0.58231338  0.82286928  0.37581951     0.94300
Al744      Al  0.61986860  0.79371586  0.38374499     1.55600
O745        O  0.62705936  0.85552333  0.34646743    -0.77500
C746        C  0.66662271  0.78119227  0.37999709     0.98400
C747        C  0.62229911  0.82301279  0.42000513     0.93300
O748        O  0.61963715  0.83940591  0.40760498    -0.82800
O749        O  0.85336885  0.61719321  0.34362678    -0.82200
C750        C  0.77857538  0.66411732  0.37478636     0.97100
O751        O  0.78732993  0.66472378  0.35610407    -0.71400
O752        O  0.82828456  0.67360038  0.36166249    -0.74900
Al753      Al  0.81365032  0.65245314  0.34498699     1.49000
C754        C  0.84740923  0.67232915  0.36930371     0.92400
O755        O  0.84049805  0.63010948  0.40381908    -0.81200
O756        O  0.80281499  0.59138340  0.37184232    -0.74700
Al757      Al  0.84498258  0.62428552  0.37327499     1.90100
O758        O  0.80632250  0.61930938  0.40710386    -0.73800
O759        O  0.77672930  0.61930410  0.35231595    -0.73600
O760        O  0.78207202  0.64810979  0.38733749    -0.79300
O761        O  0.79799498  0.63275072  0.32643064    -0.77500
O762        O  0.81762173  0.63221066  0.36569342    -1.13600
O763        O  0.83920495  0.64629710  0.32836657    -0.72800
C764        C  0.85180570  0.63006735  0.32753145     0.97900
C765        C  0.82400270  0.62584465  0.41560712     0.94300
Al766      Al  0.79409091  0.62041133  0.37855100     1.55600
O767        O  0.85698674  0.65395816  0.37144245    -0.77500
C768        C  0.78077376  0.62264926  0.33218764     0.98400
C769        C  0.82119036  0.58207655  0.37378166     0.93300
O770        O  0.83840754  0.59338135  0.37668868    -0.82800
O771        O  0.61605493  0.65556649  0.15332744    -0.82200
C772        C  0.65905676  0.61860756  0.22687896     0.97100
O773        O  0.66010069  0.63798479  0.22000798    -0.71400
O774        O  0.67166352  0.63491041  0.17936858    -0.74900
Al775      Al  0.64972521  0.65094979  0.19382908     1.49000
C776        C  0.67148307  0.62889795  0.15957651     0.92400
O777        O  0.62864946  0.59462530  0.16191581    -0.81200
O778        O  0.58789050  0.62505922  0.19983322    -0.74700
Al779      Al  0.62297452  0.62539847  0.15932971     1.90100
O780        O  0.61474512  0.58948858  0.19480981    -0.73800
O781        O  0.61486685  0.64208230  0.22902630    -0.73600
O782        O  0.64302191  0.60655860  0.22190614    -0.79300
O783        O  0.62935405  0.66844891  0.20916010    -0.77500
O784        O  0.62948056  0.63094641  0.18748283    -1.13600
O785        O  0.64503701  0.66947708  0.16918769    -0.72800
C786        C  0.62854101  0.67164345  0.15703455     0.97900
C787        C  0.62272965  0.58195020  0.17720737     0.94300
Al788      Al  0.61613091  0.61694995  0.20946536     1.55600
O789        O  0.65352590  0.62810651  0.14886254    -0.77500
C790        C  0.61850802  0.66229883  0.22573217     0.98400
C791        C  0.57948333  0.62361229  0.18095356     0.93300
O792        O  0.59162660  0.62143706  0.16414103    -0.82800
O793        O  0.14728839  0.38267340  0.34581461    -0.82200
C794        C  0.22223031  0.33862464  0.37837682     0.97100
O795        O  0.21430891  0.33752028  0.35933213    -0.71400
O796        O  0.17373104  0.32665669  0.36463664    -0.74900
Al797      Al  0.18763099  0.34828631  0.34767822     1.49000
C798        C  0.15425932  0.32721598  0.37149969     0.92400
O799        O  0.15968751  0.36982436  0.40589913    -0.81200
O800        O  0.19583887  0.41013345  0.37230337    -0.74700
Al801      Al  0.15520711  0.37559107  0.37542579     1.90100
O802        O  0.19264578  0.38405348  0.40903337    -0.73800
O803        O  0.22371417  0.38229286  0.35435115    -0.73600
O804        O  0.21821254  0.35490207  0.39052711    -0.79300
O805        O  0.20250161  0.36815283  0.32883987    -0.77500
O806        O  0.18280178  0.36870580  0.36799730    -1.13600
O807        O  0.16196025  0.35350821  0.33090554    -0.72800
C808        C  0.14938900  0.36978982  0.32976302     0.97900
C809        C  0.17542737  0.37634675  0.41769590     0.94300
Al810      Al  0.20565199  0.38189252  0.38053872     1.55600
O811        O  0.14406618  0.34536286  0.37313989    -0.77500
C812        C  0.21978902  0.37824326  0.33427404     0.98400
C813        C  0.17716910  0.41869722  0.37500604     0.93300
O814        O  0.16065528  0.40674773  0.37922481    -0.82800
O815        O  0.38224252  0.34220043  0.15018215    -0.82200
C816        C  0.33872742  0.37812850  0.22421737     0.97100
O817        O  0.33699628  0.35910173  0.21644436    -0.71400
O818        O  0.32628308  0.36251932  0.17587718    -0.74900
Al819      Al  0.34772101  0.34614136  0.19034246     1.49000
C820        C  0.32683654  0.36812771  0.15605076     0.92400
O821        O  0.36899780  0.40283748  0.16003421    -0.81200
O822        O  0.40956489  0.37052801  0.19705978    -0.74700
Al823      Al  0.37501877  0.37218696  0.15663404     1.90100
O824        O  0.38385683  0.40705136  0.19265288    -0.73800
O825        O  0.38214252  0.35403586  0.22606004    -0.73600
O826        O  0.35499167  0.39000915  0.21951877    -0.79300
O827        O  0.36742703  0.32807757  0.20583539    -0.77500
O828        O  0.36821610  0.36601777  0.18460235    -1.13600
O829        O  0.35300741  0.32795603  0.16544946    -0.72800
C830        C  0.36981381  0.32600236  0.15360250     0.97900
C831        C  0.37563434  0.41513073  0.17541351     0.94300
Al832      Al  0.38166108  0.37933116  0.20687324     1.55600
O833        O  0.34492362  0.36914737  0.14565987    -0.77500
C834        C  0.37791308  0.33394546  0.22272122     0.98400
C835        C  0.41811379  0.37308751  0.17835979     0.93300
O836        O  0.40614723  0.37655083  0.16171789    -0.82800
O837        O  0.34113300  0.14711185  0.38186219    -0.82200
C838        C  0.37453633  0.22334242  0.34041271     0.97100
O839        O  0.35581389  0.21486668  0.33819176    -0.71400
O840        O  0.36050103  0.17454256  0.32658408    -0.74900
Al841      Al  0.34359076  0.18802979  0.34826875     1.49000
C842        C  0.36699367  0.15499407  0.32665123     0.92400
O843        O  0.40154445  0.15955410  0.36945607    -0.81200
O844        O  0.36681143  0.19446939  0.41028989    -0.74700
Al845      Al  0.37084069  0.15483823  0.37505175     1.90100
O846        O  0.40416254  0.19187573  0.38516112    -0.73800
O847        O  0.34982359  0.22317700  0.38362211    -0.73600
O848        O  0.38637980  0.21863024  0.35667576    -0.79300
O849        O  0.32473268  0.20242866  0.36826369    -0.77500
O850        O  0.36358527  0.18261791  0.36874538    -1.13600
O851        O  0.32637343  0.16237435  0.35294567    -0.72800
C852        C  0.32476310  0.15043306  0.36970022     0.97900
C853        C  0.41316668  0.17515116  0.37677763     0.94300
Al854      Al  0.37583541  0.20505501  0.38287162     1.55600
O855        O  0.36857909  0.14435132  0.34454629    -0.77500
C856        C  0.32986124  0.21909373  0.37944984     0.98400
C857        C  0.36950204  0.17581817  0.41868370     0.93300
O858        O  0.37434633  0.15953064  0.40660364    -0.82800
O859        O  0.15326861  0.11930410  0.35195461    -0.82200
C860        C  0.11642515  0.16085031  0.27767438     0.97100
O861        O  0.13520560  0.16397790  0.28567374    -0.71400
O862        O  0.13196708  0.17441565  0.32653000    -0.74900
Al863      Al  0.14899503  0.15359087  0.31139541     1.49000
C864        C  0.12607226  0.17334587  0.34630331     0.92400
O865        O  0.09222915  0.12941435  0.34002642    -0.81200
O866        O  0.12880351  0.09052564  0.30374020    -0.74700
Al867      Al  0.12325017  0.12491923  0.34436323     1.90100
O868        O  0.08999559  0.11320191  0.30795854    -0.73800
O869        O  0.14310399  0.11930260  0.27490852    -0.73600
O870        O  0.10560839  0.14375976  0.28195823    -0.79300
O871        O  0.16824141  0.13501821  0.29525960    -0.77500
O872        O  0.12998145  0.13211096  0.31667211    -1.13600
O873        O  0.16707850  0.14851711  0.33621040    -0.72800
C874        C  0.16884725  0.13267985  0.34931254     0.97900
C875        C  0.08073580  0.12111814  0.32480489     0.94300
Al876      Al  0.11787558  0.11782875  0.29413216     1.55600
O877        O  0.12460145  0.15494176  0.35593599    -0.77500
C878        C  0.16297279  0.12434008  0.27826616     0.98400
C879        C  0.12637256  0.08191376  0.32241760     0.93300
O880        O  0.12092605  0.09362408  0.33879481    -0.82800
O881        O  0.34972550  0.15488947  0.11703991    -0.82200
C882        C  0.27469084  0.12090017  0.16077782     0.97100
O883        O  0.28291876  0.13976099  0.16241151    -0.71400
O884        O  0.32355674  0.13430486  0.17278748    -0.74900
Al885      Al  0.30963043  0.15167643  0.15173786     1.49000
C886        C  0.34323654  0.12821114  0.17181739     0.92400
O887        O  0.33768229  0.09423110  0.12870789    -0.81200
O888        O  0.30097260  0.12831386  0.08973400    -0.74700
Al889      Al  0.34198254  0.12494630  0.12352449     1.90100
O890        O  0.30480349  0.09133300  0.11436577    -0.73800
O891        O  0.27342841  0.14550215  0.11786157    -0.73600
O892        O  0.27912561  0.10886966  0.14450639    -0.79300
O893        O  0.29488491  0.17071595  0.13218596    -0.77500
O894        O  0.31442789  0.13190644  0.13085976    -1.13600
O895        O  0.33535566  0.16870491  0.14693616    -0.72800
C896        C  0.34791530  0.17043828  0.13062887     0.97900
C897        C  0.32226254  0.08251624  0.12120612     0.94300
Al898      Al  0.29154237  0.11949966  0.11765232     1.55600
O899        O  0.35327476  0.12689414  0.15353744    -0.77500
C900        C  0.27773823  0.16549275  0.12176185     0.98400
C901        C  0.31936619  0.12509498  0.08083958     0.93300
O902        O  0.33623455  0.12151367  0.09242801    -0.82800
O903        O  0.11663935  0.34950928  0.15810654    -0.82200
C904        C  0.16035151  0.27558640  0.12290375     0.97100
O905        O  0.16185488  0.28315018  0.14210950    -0.71400
O906        O  0.17212099  0.32371223  0.13844711    -0.74900
Al907      Al  0.15090801  0.30934913  0.15491701     1.49000
C908        C  0.17155501  0.34319111  0.13183557     0.92400
O909        O  0.12820640  0.33802240  0.09700744    -0.81200
O910        O  0.08917392  0.30094754  0.13140812    -0.74700
Al911      Al  0.12313709  0.34211534  0.12809763     1.90100
O912        O  0.11375990  0.30523649  0.09406900    -0.73800
O913        O  0.11756944  0.27320118  0.14738319    -0.73600
O914        O  0.14399956  0.28001146  0.11105675    -0.79300
O915        O  0.13123992  0.29405860  0.17341192    -0.77500
O916        O  0.13033814  0.31452823  0.13487347    -1.13600
O917        O  0.14566281  0.33438216  0.17268343    -0.72800
C918        C  0.12908905  0.34647347  0.17433901     0.97900
C919        C  0.12122009  0.32237723  0.08519615     0.94300
Al920      Al  0.11714154  0.29183188  0.12203407     1.55600
O921        O  0.15341266  0.35337029  0.12998836    -0.77500
C922        C  0.12113989  0.27699489  0.16750986     0.98400
C923        C  0.08025301  0.31946278  0.12924396     0.93300
O924        O  0.09183601  0.33630466  0.12516451    -0.82800
O925        O  0.38168565  0.84687440  0.34410355    -0.82200
C926        C  0.33806582  0.77276635  0.37934082     0.97100
O927        O  0.33621370  0.78071190  0.36039679    -0.71400
O928        O  0.32601974  0.82143662  0.36554713    -0.74900
Al929      Al  0.34688468  0.80711364  0.34808904     1.49000
C930        C  0.32706310  0.84109842  0.37179489     0.92400
O931        O  0.37024620  0.83559500  0.40505083    -0.81200
O932        O  0.40922859  0.79836642  0.37102186    -0.74700
Al933      Al  0.37541711  0.83956776  0.37421732     1.90100
O934        O  0.38425844  0.80269588  0.40852142    -0.73800
O935        O  0.38109767  0.77089252  0.35401406    -0.73600
O936        O  0.35455536  0.77703859  0.39101331    -0.79300
O937        O  0.36621231  0.79208854  0.32899172    -0.77500
O938        O  0.36795213  0.81200045  0.36760720    -1.13600
O939        O  0.35165997  0.83250362  0.33071461    -0.72800
C940        C  0.36807298  0.84482461  0.32864284     0.97900
C941        C  0.37682159  0.82009302  0.41711536     0.94300
Al942      Al  0.38124262  0.78921034  0.38014195     1.55600
O943        O  0.34538087  0.85110373  0.37267432    -0.77500
C944        C  0.37719476  0.77527572  0.33401102     0.98400
C945        C  0.41811243  0.81692593  0.37281915     0.93300
O946        O  0.40658403  0.83373635  0.37695297    -0.82800
O947        O  0.11607944  0.84540495  0.35438303    -0.82200
C948        C  0.16214824  0.88003774  0.28129565     0.97100
O949        O  0.16305738  0.86090294  0.28888949    -0.71400
O950        O  0.17326368  0.86411862  0.32968217    -0.74900
Al951      Al  0.15146905  0.84836362  0.31486497     1.49000
C952        C  0.17265305  0.86979550  0.34951901     0.92400
O953        O  0.13176509  0.90574554  0.34472000    -0.81200
O954        O  0.09035787  0.87474333  0.30695357    -0.74700
Al955      Al  0.12442082  0.87529157  0.34806402     1.90100
O956        O  0.11767767  0.91042920  0.31184235    -0.73800
O957        O  0.11777269  0.85705490  0.27860788    -0.73600
O958        O  0.14610341  0.89227651  0.28564720    -0.79300
O959        O  0.13139487  0.83085951  0.29914378    -0.77500
O960        O  0.13149601  0.86884597  0.32024401    -1.13600
O961        O  0.14524049  0.83044265  0.33969827    -0.72800
C962        C  0.12817763  0.82887948  0.35123939     0.97900
C963        C  0.12630762  0.91820242  0.32906548     0.94300
Al964      Al  0.11888635  0.88251693  0.29773500     1.55600
O965        O  0.15440439  0.87135639  0.35962798    -0.77500
C966        C  0.12126336  0.83686364  0.28213214     0.98400
C967        C  0.08144269  0.87731326  0.32548574     0.93300
O968        O  0.09324793  0.88062250  0.34237029    -0.82800
O969        O  0.34954515  0.88224962  0.15679916    -0.82200
C970        C  0.27438631  0.83866737  0.12522239     0.97100
O971        O  0.28257593  0.83761314  0.14411445    -0.71400
O972        O  0.32291081  0.82610031  0.13702307    -0.74900
Al973      Al  0.30971150  0.84767438  0.15491816     1.49000
C974        C  0.34252471  0.82664586  0.13050307     0.92400
O975        O  0.33620976  0.86915963  0.09648284    -0.81200
O976        O  0.30122156  0.91020885  0.13054097    -0.74700
Al977      Al  0.34154678  0.87507366  0.12703835     1.90100
O978        O  0.30331542  0.88371078  0.09425867    -0.73800
O979        O  0.27410497  0.88258027  0.14995693    -0.73600
O980        O  0.27799953  0.85503513  0.11320881    -0.79300
O981        O  0.29575833  0.86742444  0.17448203    -0.77500
O982        O  0.31412336  0.86838273  0.13486671    -1.13600
O983        O  0.33594353  0.85229989  0.17108011    -0.72800
C984        C  0.34719760  0.86947499  0.17292190     0.97900
C985        C  0.32015033  0.87576131  0.08507718     0.94300
Al986      Al  0.29108127  0.88184895  0.12300971     1.55600
O987        O  0.35274726  0.84483083  0.12918317    -0.77500
C988        C  0.27881144  0.87838873  0.16984514     0.98400
C989        C  0.31986137  0.91836344  0.12671126     0.93300
O990        O  0.33627255  0.90613183  0.12318049    -0.82800
O991        O  0.15363062  0.64883550  0.12104825    -0.82200
C992        C  0.12176815  0.72522607  0.16443151     0.97100
O993        O  0.13986231  0.71562556  0.16668543    -0.71400
O994        O  0.13321754  0.67505234  0.17667320    -0.74900
Al995      Al  0.15111002  0.68876453  0.15581037     1.49000
C996        C  0.12595436  0.65575881  0.17558449     0.92400
O997        O  0.09282820  0.66259735  0.13128938    -0.81200
O998        O  0.12817155  0.69817480  0.09317464    -0.74700
Al999      Al  0.12368106  0.65735575  0.12704433     1.90100
O1000       O  0.09124062  0.69628506  0.11863645    -0.73800
O1001       O  0.14660412  0.72486488  0.12100856    -0.73600
O1002       O  0.10997019  0.72153003  0.14786026    -0.79300
O1003       O  0.17072211  0.70319256  0.13663586    -0.77500
O1004       O  0.13136713  0.68472716  0.13464250    -1.13600
O1005       O  0.16775836  0.66271435  0.15094044    -0.72800
C1006       C  0.16947210  0.65063681  0.13427322     0.97900
C1007       C  0.08178858  0.67897958  0.12490583     0.94300
Al1008     Al  0.11994376  0.70811035  0.12124482     1.55600
O1009       O  0.12441051  0.64589211  0.15720251    -0.77500
C1010       C  0.16628538  0.72002372  0.12543858     0.98400
C1011       C  0.12545028  0.67970294  0.08430172     0.93300
O1012       O  0.12131794  0.66302028  0.09592310    -0.82800
O1013       O  0.34249660  0.61533462  0.14671068    -0.82200
C1014       C  0.37488034  0.65934438  0.22223905     0.97100
O1015       O  0.35609866  0.66109835  0.21377420    -0.71400
O1016       O  0.36049758  0.67168871  0.17306006    -0.74900
Al1017     Al  0.34396610  0.64992747  0.18721261     1.49000
C1018       C  0.36736222  0.67126123  0.15358381     0.92400
O1019       O  0.40281361  0.62901850  0.15993405    -0.81200
O1020       O  0.36806668  0.58830715  0.19520357    -0.74700
Al1021     Al  0.37214664  0.62283702  0.15482241     1.90100
O1022       O  0.40500676  0.61382759  0.19249051    -0.73800
O1023       O  0.35027629  0.61555065  0.22337481    -0.73600
O1024       O  0.38663941  0.64283295  0.21827939    -0.79300
O1025       O  0.32518965  0.63008789  0.20221455    -0.77500
O1026       O  0.36433630  0.62962545  0.18241328    -1.13600
O1027       O  0.32692855  0.64404409  0.16166298    -0.72800
C1028       C  0.32585735  0.62731905  0.14957477     0.97900
C1029       C  0.41426402  0.62193006  0.17576184     0.94300
Al1030     Al  0.37649754  0.61618651  0.20531959     1.55600
O1031       O  0.36960178  0.65307686  0.14349389    -0.77500
C1032       C  0.33027350  0.61930575  0.21912390     0.98400
C1033       C  0.37162859  0.57962808  0.17673474     0.93300
O1034       O  0.37620242  0.59153392  0.16025669    -0.82800
O1035       O  0.14770407  0.65670245  0.38404656    -0.82200
C1036       C  0.21976765  0.61914054  0.33711474     0.97100
O1037       O  0.21178204  0.63807309  0.33549906    -0.71400
O1038       O  0.17045688  0.63505346  0.32721732    -0.74900
Al1039     Al  0.18642703  0.65149559  0.34772099     1.49000
C1040       C  0.15066815  0.62948090  0.32898906     0.92400
O1041       O  0.15662838  0.59540327  0.37148527    -0.81200
O1042       O  0.19600046  0.62715167  0.41024000    -0.74700
Al1043     Al  0.15386517  0.62629893  0.37718872     1.90100
O1044       O  0.19016394  0.59089455  0.38384448    -0.73800
O1045       O  0.22332528  0.64359940  0.38116704    -0.73600
O1046       O  0.21591558  0.60770520  0.35392886    -0.79300
O1047       O  0.20323321  0.66960143  0.36645990    -0.77500
O1048       O  0.18152731  0.63200160  0.36886199    -1.13600
O1049       O  0.16204092  0.67010086  0.35397861    -0.72800
C1050       C  0.14998395  0.67233939  0.37063181     0.97900
C1051       C  0.17240135  0.58299424  0.37666742     0.94300
Al1052     Al  0.20431479  0.61848879  0.38133012     1.55600
O1053       O  0.14137748  0.62870387  0.34766849    -0.77500
C1054       C  0.22000397  0.66364687  0.37703520     0.98400
C1055       C  0.17753413  0.62554310  0.41953257     0.93300
O1056       O  0.16040176  0.62261216  0.40811749    -0.82800
C1057       C  0.29168254  0.59345757  0.30976627    -0.18300
C1058       C  0.30747260  0.59386719  0.29299590    -0.20400
C1059       C  0.30193541  0.60101229  0.27178195     0.20200
C1060       C  0.27996720  0.60661863  0.26712739    -0.03400
C1061       C  0.26403971  0.60629775  0.28408216    -0.06400
C1062       C  0.27005870  0.60024399  0.30566833     0.20500
C1063       C  0.24243586  0.61331635  0.27970479     0.18700
C1064       C  0.23652776  0.61909230  0.25818145    -0.17900
C1065       C  0.25224158  0.61924563  0.24138215    -0.20100
C1066       C  0.27415222  0.61373728  0.24585277     0.20100
C1067       C  0.29051417  0.61640112  0.22978021    -0.33100
C1068       C  0.31274263  0.61239713  0.23474363     0.00800
C1069       C  0.31815588  0.60379759  0.25552838    -0.24500
C1070       C  0.25476917  0.60242837  0.32295526    -0.29000
C1071       C  0.23384473  0.61120898  0.31890577     0.06500
C1072       C  0.22753420  0.61576189  0.29713790    -0.27700
H1073       H  0.29659721  0.58859286  0.32615100     0.11200
H1074       H  0.32421287  0.58928903  0.29682222     0.12400
H1075       H  0.21992055  0.62424560  0.25449657     0.11400
H1076       H  0.24742706  0.62448018  0.22507774     0.10700
H1077       H  0.28604528  0.62268460  0.21374225     0.16100
H1078       H  0.33515640  0.60040785  0.25949134     0.12000
H1079       H  0.25969672  0.59898910  0.33971019     0.14800
H1080       H  0.21131434  0.62235056  0.29396141     0.14600
C1081       C  0.25199155  0.60120935  0.16468256    -0.18300
C1082       C  0.22940174  0.60507703  0.16298559    -0.20400
C1083       C  0.22112340  0.61894390  0.14657295     0.20200
C1084       C  0.23568646  0.62818818  0.13106182    -0.03400
C1085       C  0.25856331  0.62445513  0.13291079    -0.06400
C1086       C  0.26675061  0.61126129  0.15009096     0.20500
C1087       C  0.27330643  0.63522577  0.11859050     0.18700
C1088       C  0.26496532  0.64856000  0.10177667    -0.17900
C1089       C  0.24232036  0.65204038  0.09978069    -0.20100
C1090       C  0.22756445  0.64237008  0.11464402     0.20100
C1091       C  0.20508219  0.64776022  0.11429763    -0.33100
C1092       C  0.19077496  0.63964054  0.13051038     0.00800
C1093       C  0.19880924  0.62487000  0.14628340    -0.24500
C1094       C  0.28952976  0.60980748  0.15346869    -0.29000
C1095       C  0.30418848  0.62183287  0.14030686     0.06500
C1096       C  0.29605970  0.63387991  0.12242776    -0.27700
H1097       H  0.25798850  0.59105980  0.17797785     0.11200
H1098       H  0.21846321  0.59778240  0.17497994     0.12400
H1099       H  0.27601238  0.65691298  0.09060703     0.11400
H1100       H  0.23640902  0.66296901  0.08708222     0.10700
H1101       H  0.19905746  0.65966850  0.10254796     0.16100
H1102       H  0.18789958  0.61900476  0.15909014     0.12000
H1103       H  0.29575660  0.60107606  0.16766931     0.14800
H1104       H  0.30730946  0.64363955  0.11267021     0.14600
C1105       C  0.15129106  0.59939433  0.25457456    -0.18300
C1106       C  0.14752565  0.60307241  0.23217978    -0.20400
C1107       C  0.13390861  0.62031468  0.22534277     0.20200
C1108       C  0.12291890  0.63312084  0.24132459    -0.03400
C1109       C  0.12648545  0.62921310  0.26394718    -0.06400
C1110       C  0.14134737  0.61276893  0.27053547     0.20500
C1111       C  0.11654890  0.64290422  0.27988151     0.18700
C1112       C  0.10240748  0.65971024  0.27308221    -0.17900
C1113       C  0.09910590  0.66375180  0.25070555    -0.20100
C1114       C  0.10973298  0.65093096  0.23474155     0.20100
C1115       C  0.10880729  0.65669210  0.21246242    -0.33100
C1116       C  0.12084413  0.64492256  0.19663828     0.00800
C1117       C  0.13249701  0.62610443  0.20298798    -0.24500
C1118       C  0.14735686  0.61120171  0.29274750    -0.29000
C1119       C  0.13855556  0.62571217  0.30842571     0.06500
C1120       C  0.12235111  0.64075714  0.30212593    -0.27700
H1121       H  0.16265430  0.58662335  0.25938010     0.11200
H1122       H  0.15605164  0.59304187  0.22019130     0.12400
H1123       H  0.09466251  0.67036898  0.28505882     0.11400
H1124       H  0.08888712  0.67745306  0.24588797     0.10700
H1125       H  0.10008306  0.67139696  0.20758577     0.16100
H1126       H  0.14221259  0.61734511  0.19088500     0.12000
H1127       H  0.16016485  0.59987033  0.29760977     0.14800
H1128       H  0.11602836  0.65231459  0.31413339     0.14600
C1129       C  0.24224303  0.74455976  0.13441567    -0.18300
C1130       C  0.25761813  0.76148608  0.13412849    -0.20400
C1131       C  0.25252810  0.78154173  0.12416390     0.20200
C1132       C  0.23226809  0.78436905  0.11340488    -0.03400
C1133       C  0.21673041  0.76724404  0.11368907    -0.06400
C1134       C  0.22161503  0.74748105  0.12470960     0.20500
C1135       C  0.19591971  0.77033601  0.10407371     0.18700
C1136       C  0.19133335  0.79009056  0.09315068    -0.17900
C1137       C  0.20679019  0.80714084  0.09287927    -0.20100
C1138       C  0.22707292  0.80469575  0.10352059     0.20100
C1139       C  0.24168616  0.82249029  0.10571802    -0.33100
C1140       C  0.26104172  0.81995483  0.11796099     0.00800
C1141       C  0.26683514  0.79922283  0.12604742    -0.24500
C1142       C  0.20541713  0.73143722  0.12696733    -0.29000
C1143       C  0.18416101  0.73502433  0.11888570     0.06500
C1144       C  0.17973385  0.75412172  0.10665939    -0.27700
H1145       H  0.24621826  0.72944826  0.14286174     0.11200
H1146       H  0.27319823  0.75916325  0.14237763     0.12400
H1147       H  0.17550330  0.79264254  0.08548083     0.11400
H1148       H  0.20257024  0.82249959  0.08502687     0.10700
H1149       H  0.23732895  0.83849537  0.09934984     0.16100
H1150       H  0.28206646  0.79717581  0.13504475     0.12000
H1151       H  0.20905133  0.71669991  0.13621648     0.14800
H1152       H  0.16341972  0.75688461  0.10014282     0.14600
C1153       C  0.39471261  0.74656305  0.16110495    -0.18300
C1154       C  0.39145181  0.76901078  0.15747780    -0.20400
C1155       C  0.37616771  0.77619656  0.14182517     0.20200
C1156       C  0.36501623  0.76053236  0.12878507    -0.03400
C1157       C  0.36861038  0.73780821  0.13218746    -0.06400
C1158       C  0.38297303  0.73085013  0.14894082     0.20500
C1159       C  0.35665276  0.72210245  0.11993126     0.18700
C1160       C  0.34194977  0.72932542  0.10372510    -0.17900
C1161       C  0.33813287  0.75178740  0.10061214    -0.20100
C1162       C  0.34910537  0.76749532  0.11348866     0.20100
C1163       C  0.34329701  0.78982280  0.11252835    -0.33100
C1164       C  0.35345175  0.80533458  0.12637748     0.00800
C1165       C  0.37061610  0.79857191  0.14019863    -0.24500
C1166       C  0.38416986  0.70845206  0.15429279    -0.29000
C1167       C  0.37141579  0.69279470  0.14299995     0.06500
C1168       C  0.35839901  0.69962009  0.12519854    -0.27700
H1169       H  0.40589013  0.74149727  0.17395999     0.11200
H1170       H  0.40019909  0.78075150  0.16760903     0.12400
H1171       H  0.33268469  0.71757932  0.09407918     0.11400
H1172       H  0.32599482  0.75684315  0.08865515     0.10700
H1173       H  0.32985851  0.79495621  0.10206641     0.16100
H1174       H  0.37812415  0.81038603  0.15122919     0.12000
H1175       H  0.39391335  0.70331055  0.16826727     0.14800
H1176       H  0.34810271  0.68773080  0.11683715     0.14600
C1177       C  0.10270513  0.81596773  0.20566401    -0.18300
C1178       C  0.10251526  0.80009897  0.18895586    -0.20400
C1179       C  0.10715412  0.77805621  0.19371047     0.20200
C1180       C  0.11133757  0.77188010  0.21569177    -0.03400
C1181       C  0.11134360  0.78784074  0.23254896    -0.06400
C1182       C  0.10741399  0.81007004  0.22746066     0.20500
C1183       C  0.11619066  0.78165317  0.25434535     0.18700
C1184       C  0.12039573  0.75958742  0.25925227    -0.17900
C1185       C  0.12062514  0.74384599  0.24255344    -0.20100
C1186       C  0.11647299  0.74989931  0.22072834     0.20100
C1187       C  0.11837222  0.73453282  0.20375252    -0.33100
C1188       C  0.11509845  0.74069635  0.18178588     0.00800
C1189       C  0.10875033  0.76227533  0.17683646    -0.24500
C1190       C  0.10924330  0.82606703  0.24406454    -0.29000
C1191       C  0.11513176  0.82005991  0.26560700     0.06500
C1192       C  0.11778148  0.79772551  0.27071243    -0.27700
H1193       H  0.09961315  0.83294181  0.20145276     0.11200
H1194       H  0.09927849  0.80516881  0.17221545     0.12400
H1195       H  0.12409234  0.75459795  0.27592542     0.11400
H1196       H  0.12450818  0.72699795  0.24664498     0.10700
H1197       H  0.12327403  0.71784859  0.20751047     0.16100
H1198       H  0.10651937  0.76706348  0.15983576     0.12000
H1199       H  0.10718920  0.84323572  0.23996476     0.14800
H1200       H  0.12215026  0.79287999  0.28727780     0.14600
C1201       C  0.14557196  0.76849304  0.40149646    -0.18300
C1202       C  0.14872495  0.74588957  0.40430769    -0.20400
C1203       C  0.14037555  0.73082751  0.38892364     0.20200
C1204       C  0.12773528  0.73864939  0.37112742    -0.03400
C1205       C  0.12445946  0.76149018  0.36834353    -0.06400
C1206       C  0.13395412  0.77650883  0.38328997     0.20500
C1207       C  0.11302988  0.76932517  0.34977013     0.18700
C1208       C  0.10408020  0.75427733  0.33473831    -0.17900
C1209       C  0.10735350  0.73171860  0.33746808    -0.20100
C1210       C  0.11964671  0.72378232  0.35525821     0.20100
C1211       C  0.12529930  0.70148064  0.35658972    -0.33100
C1212       C  0.13887627  0.69374182  0.37355852     0.00800
C1213       C  0.14569655  0.70833307  0.39015406    -0.24500
C1214       C  0.13300134  0.79917648  0.37890941    -0.29000
C1215       C  0.12265797  0.80694939  0.35983022     0.06500
C1216       C  0.11210745  0.79200654  0.34572151    -0.27700
H1217       H  0.15289391  0.77975672  0.41319034     0.11200
H1218       H  0.15839615  0.74023955  0.41810041     0.12400
H1219       H  0.09524166  0.75999289  0.32041391     0.11400
H1220       H  0.10094366  0.72051530  0.32518991     0.10700
H1221       H  0.12034555  0.69032121  0.34358905     0.16100
H1222       H  0.15660569  0.70253395  0.40294246     0.12000
H1223       H  0.14169611  0.81063819  0.38942681     0.14800
H1224       H  0.10472687  0.79794705  0.33065268     0.14600
C1225       C  0.24031486  0.87693308  0.26388519    -0.18300
C1226       C  0.25692263  0.87635298  0.24801495    -0.20400
C1227       C  0.25250787  0.88252237  0.22624909     0.20200
C1228       C  0.23145387  0.89040917  0.22068229    -0.03400
C1229       C  0.21468847  0.89102376  0.23670426    -0.06400
C1230       C  0.21905322  0.88368594  0.25822407     0.20500
C1231       C  0.19327990  0.89780469  0.23087629     0.18700
C1232       C  0.18914535  0.90483445  0.20934146    -0.17900
C1233       C  0.20578136  0.90426940  0.19347663    -0.20100
C1234       C  0.22682448  0.89662113  0.19885996     0.20100
C1235       C  0.24294133  0.89402651  0.18257289    -0.33100
C1236       C  0.26351581  0.88490137  0.18770089     0.00800
C1237       C  0.26842293  0.87992053  0.20975716    -0.24500
C1238       C  0.20180063  0.88194324  0.27330103    -0.29000
C1239       C  0.18025653  0.88730873  0.26714326     0.06500
C1240       C  0.17616599  0.89615999  0.24629870    -0.27700
H1241       H  0.24392016  0.87142102  0.28041290     0.11200
H1242       H  0.27304165  0.87044193  0.25261012     0.12400
H1243       H  0.17286531  0.91014523  0.20458942     0.11400
H1244       H  0.20199787  0.90919202  0.17680875     0.10700
H1245       H  0.23901805  0.89803703  0.16568261     0.16100
H1246       H  0.28427958  0.87306095  0.21396113     0.12000
H1247       H  0.20487351  0.87523136  0.28951121     0.14800
H1248       H  0.15948142  0.90012898  0.24157517     0.14600
C1249       C  0.39779836  0.85104359  0.23254593    -0.18300
C1250       C  0.40083338  0.84755802  0.25508954    -0.20400
C1251       C  0.38546377  0.85543223  0.27039334     0.20200
C1252       C  0.36728483  0.86769910  0.26291476    -0.03400
C1253       C  0.36430437  0.87134721  0.24017611    -0.06400
C1254       C  0.37939933  0.86255102  0.22488336     0.20500
C1255       C  0.34547748  0.88255096  0.23268816     0.18700
C1256       C  0.33015455  0.89055587  0.24794992    -0.17900
C1257       C  0.33305596  0.88686523  0.27042784    -0.20100
C1258       C  0.35132345  0.87512874  0.27802091     0.20100
C1259       C  0.35311335  0.86940541  0.30023686    -0.33100
C1260       C  0.37057168  0.85635415  0.30759707     0.00800
C1261       C  0.38712513  0.85002457  0.29281336    -0.24500
C1262       C  0.37502460  0.86413997  0.20224684    -0.29000
C1263       C  0.35587744  0.87452275  0.19483200     0.06500
C1264       C  0.34153500  0.88424788  0.21005728    -0.27700
H1265       H  0.40953699  0.84417979  0.22105169     0.11200
H1266       H  0.41484324  0.83808512  0.26050312     0.12400
H1267       H  0.31556091  0.89906353  0.24245113     0.11400
H1268       H  0.32064415  0.89261852  0.28183148     0.10700
H1269       H  0.34011427  0.87382242  0.31161611     0.16100
H1270       H  0.40021343  0.83937955  0.29840323     0.12000
H1271       H  0.38562602  0.85595817  0.19049086     0.14800
H1272       H  0.32635456  0.89152529  0.20430370     0.14600
C1273       C  0.37587120  0.75420301  0.25597515    -0.18300
C1274       C  0.37531590  0.73759945  0.24012788    -0.20400
C1275       C  0.38109797  0.71605789  0.24570141     0.20200
C1276       C  0.38893531  0.71142451  0.26699702    -0.03400
C1277       C  0.38933585  0.72817874  0.28305667    -0.06400
C1278       C  0.38209183  0.74946925  0.27764398     0.20500
C1279       C  0.39563497  0.72330039  0.30481352     0.18700
C1280       C  0.40297046  0.70207250  0.30989880    -0.17900
C1281       C  0.40269009  0.68546616  0.29393314    -0.20100
C1282       C  0.39502898  0.68978856  0.27262485     0.20100
C1283       C  0.39207790  0.67273227  0.25726309    -0.33100
C1284       C  0.38254476  0.67713963  0.23673035     0.00800
C1285       C  0.37791339  0.69888316  0.23076681    -0.24500
C1286       C  0.37981253  0.76526552  0.29423156    -0.29000
C1287       C  0.38418003  0.75999554  0.31630724     0.06500
C1288       C  0.39314700  0.73930721  0.32131765    -0.27700
H1289       H  0.37052678  0.77054307  0.25150751     0.11200
H1290       H  0.36957035  0.74143693  0.22373318     0.12400
H1291       H  0.40813160  0.69809508  0.32644677     0.11400
H1292       H  0.40765389  0.66903676  0.29850392     0.10700
H1293       H  0.39568420  0.65593207  0.26181048     0.16100
H1294       H  0.37087896  0.70227430  0.21475668     0.12000
H1295       H  0.37334507  0.78129188  0.29008222     0.14800
H1296       H  0.39691792  0.73519291  0.33821523     0.14600
C1297       C  0.27057103  0.89316170  0.34849703    -0.18300
C1298       C  0.24818052  0.89704007  0.34501665    -0.20400
C1299       C  0.23222164  0.88438600  0.35585491     0.20200
C1300       C  0.23886824  0.86831227  0.37109086    -0.03400
C1301       C  0.26148523  0.86417812  0.37436472    -0.06400
C1302       C  0.27742345  0.87639754  0.36269403     0.20500
C1303       C  0.26807185  0.84680054  0.38811893     0.18700
C1304       C  0.25215270  0.83453973  0.39940941    -0.17900
C1305       C  0.22979749  0.83882163  0.39639786    -0.20100
C1306       C  0.22294333  0.85531591  0.38190030     0.20100
C1307       C  0.20056540  0.85794395  0.37681759    -0.33100
C1308       C  0.19402642  0.87283451  0.36053126     0.00800
C1309       C  0.20986087  0.88643599  0.35058916    -0.24500
C1310       C  0.29972970  0.87051696  0.36413565    -0.29000
C1311       C  0.30605790  0.85214085  0.37648243     0.06500
C1312       C  0.29029326  0.84091904  0.38906909    -0.27700
H1313       H  0.28252187  0.90270147  0.33939732     0.11200
H1314       H  0.24334733  0.90948670  0.33330342     0.12400
H1315       H  0.25697167  0.82114278  0.41002557     0.11400
H1316       H  0.21784600  0.82865571  0.40478518     0.10700
H1317       H  0.18849354  0.84697245  0.38395633     0.16100
H1318       H  0.20487983  0.89756057  0.33763661     0.12000
H1319       H  0.31179444  0.87883184  0.35400819     0.14800
H1320       H  0.29516452  0.82655225  0.39834205     0.14600
C1321       C  0.24306529  0.74075811  0.38145593    -0.18300
C1322       C  0.25984948  0.75635798  0.38215511    -0.20400
C1323       C  0.28157536  0.74988591  0.38607614     0.20200
C1324       C  0.28637286  0.72766442  0.39035651    -0.03400
C1325       C  0.26945321  0.71190320  0.38947158    -0.06400
C1326       C  0.24780087  0.71847723  0.38455381     0.20500
C1327       C  0.27438791  0.68949190  0.39240169     0.18700
C1328       C  0.29602740  0.68315672  0.39709054    -0.17900
C1329       C  0.31281944  0.69880997  0.39804699    -0.20100
C1330       C  0.30824805  0.72103043  0.39426441     0.20100
C1331       C  0.32527118  0.73651265  0.39291205    -0.33100
C1332       C  0.32058362  0.75821463  0.38703316     0.00800
C1333       C  0.29874973  0.76500058  0.38441493    -0.24500
C1334       C  0.23145464  0.70259910  0.38175896    -0.29000
C1335       C  0.23647271  0.68019481  0.38351047     0.06500
C1336       C  0.25780393  0.67376548  0.38956273    -0.27700
H1337       H  0.22649176  0.74603913  0.37779304     0.11200
H1338       H  0.25594294  0.77339455  0.37897767     0.12400
H1339       H  0.30007080  0.66602054  0.39943870     0.11400
H1340       H  0.32949109  0.69344738  0.40107070     0.10700
H1341       H  0.34220965  0.73135343  0.39461074     0.16100
H1342       H  0.29529369  0.78183505  0.37981817     0.12000
H1343       H  0.21499053  0.70767115  0.37733268     0.14800
H1344       H  0.26178069  0.65649855  0.39097736     0.14600
C1345       C  0.29092706  0.98841548  0.09929581    -0.18300
C1346       C  0.29166932  0.01127987  0.09792542    -0.20400
C1347       C  0.30822638  0.02312276  0.10873140     0.20200
C1348       C  0.32471115  0.01180680  0.12033493    -0.03400
C1349       C  0.32415391  0.98862457  0.12144082    -0.06400
C1350       C  0.30688778  0.97697706  0.11126232     0.20500
C1351       C  0.34058356  0.97714819  0.13304741     0.18700
C1352       C  0.35749648  0.98905971  0.14329700    -0.17900
C1353       C  0.35785876  0.01207164  0.14247555    -0.20100
C1354       C  0.34142718  0.02365210  0.13121730     0.20100
C1355       C  0.34106523  0.04680267  0.13106920    -0.33100
C1356       C  0.32413025  0.05818017  0.12019750     0.00800
C1357       C  0.30815310  0.04609548  0.10861256    -0.24500
C1358       C  0.30570545  0.95412057  0.11340143    -0.29000
C1359       C  0.32188742  0.94251385  0.12497428     0.06500
C1360       C  0.33956717  0.95405317  0.13441955    -0.27700
H1361       H  0.27771183  0.97968172  0.09117855     0.11200
H1362       H  0.27899088  0.01974151  0.08879979     0.12400
H1363       H  0.37028244  0.98058750  0.15225229     0.11400
H1364       H  0.37089090  0.02082693  0.15085495     0.10700
H1365       H  0.35358079  0.05590813  0.13987006     0.16100
H1366       H  0.29522924  0.05458429  0.09984394     0.12000
H1367       H  0.29225276  0.94523668  0.10581122     0.14800
H1368       H  0.35210044  0.94513020  0.14331381     0.14600
C1369       C  0.23865719  0.25882708  0.12208510    -0.18300
C1370       C  0.25536358  0.24314106  0.12219485    -0.20400
C1371       C  0.25069813  0.22115397  0.11714865     0.20200
C1372       C  0.22921597  0.21508818  0.11089681    -0.03400
C1373       C  0.21236285  0.23093891  0.11068045    -0.06400
C1374       C  0.21705612  0.25275671  0.11687827     0.20500
C1375       C  0.19061589  0.22470281  0.10545689     0.18700
C1376       C  0.18614775  0.20286110  0.09968056    -0.17900
C1377       C  0.20286019  0.18713891  0.09993104    -0.20100
C1378       C  0.22432974  0.19300015  0.10594038     0.20100
C1379       C  0.24071469  0.17700347  0.10813837    -0.33100
C1380       C  0.26182363  0.18275336  0.11559233     0.00800
C1381       C  0.26687557  0.20498166  0.11931004    -0.24500
C1382       C  0.19986711  0.26778327  0.11905537    -0.29000
C1383       C  0.17809294  0.26131822  0.11510983     0.06500
C1384       C  0.17357921  0.24009978  0.10740896    -0.27700
H1385       H  0.24250386  0.27557053  0.12672113     0.11200
H1386       H  0.27179697  0.24807886  0.12689193     0.12400
H1387       H  0.16958695  0.19779273  0.09560690     0.11400
H1388       H  0.19885818  0.17025826  0.09601489     0.10700
H1389       H  0.23667514  0.15993372  0.10515623     0.16100
H1390       H  0.28313862  0.20961138  0.12487259     0.12000
H1391       H  0.20323531  0.28424310  0.12499170     0.14800
H1392       H  0.15670556  0.23513910  0.10462936     0.14600
C1393       C  0.14092541  0.00969757  0.28856290    -0.18300
C1394       C  0.14114420  0.98680790  0.28961351    -0.20400
C1395       C  0.13681681  0.97604473  0.30950889     0.20200
C1396       C  0.13303594  0.98841691  0.32874266    -0.03400
C1397       C  0.13268986  0.01160243  0.32764721    -0.06400
C1398       C  0.13633661  0.02221614  0.30738208     0.20500
C1399       C  0.12806062  0.02410430  0.34663535     0.18700
C1400       C  0.12460132  0.01325879  0.36670582    -0.17900
C1401       C  0.12506205  0.99026509  0.36782135    -0.20100
C1402       C  0.12888848  0.97762662  0.34886635     0.20100
C1403       C  0.12782626  0.95448079  0.34942583    -0.33100
C1404       C  0.13027189  0.94220821  0.32994683     0.00800
C1405       C  0.13539222  0.95314091  0.31026042    -0.24500
C1406       C  0.13479360  0.04511634  0.30609513    -0.29000
C1407       C  0.12942353  0.05778060  0.32472575     0.06500
C1408       C  0.12646166  0.04712795  0.34507242    -0.27700
H1409       H  0.14389816  0.01760489  0.27290532     0.11200
H1410       H  0.14424000  0.97750322  0.27474052     0.12400
H1411       H  0.12116566  0.02255771  0.38150425     0.11400
H1412       H  0.12193901  0.98235362  0.38344233     0.10700
H1413       H  0.12401434  0.94613437  0.36467347     0.16100
H1414       H  0.13775656  0.94374536  0.29528633     0.12000
H1415       H  0.13730214  0.05303316  0.29035170     0.14800
H1416       H  0.12249668  0.05667912  0.35958202     0.14600
C1417       C  0.24081026  0.12155429  0.25559219    -0.18300
C1418       C  0.25668125  0.12057469  0.23900987    -0.20400
C1419       C  0.25057831  0.11605886  0.21723778     0.20200
C1420       C  0.22842348  0.11154122  0.21222363    -0.03400
C1421       C  0.21235202  0.11278774  0.22894584    -0.06400
C1422       C  0.21856286  0.11820646  0.25064076     0.20500
C1423       C  0.19001082  0.10955051  0.22377446     0.18700
C1424       C  0.18406047  0.10425792  0.20209463    -0.17900
C1425       C  0.20000622  0.10287353  0.18554122    -0.20100
C1426       C  0.22217931  0.10690129  0.19032393     0.20100
C1427       C  0.23799327  0.10770771  0.17346768    -0.33100
C1428       C  0.25967609  0.11380496  0.17829582     0.00800
C1429       C  0.26601293  0.11724423  0.20022398    -0.24500
C1430       C  0.20238835  0.12102674  0.26683523    -0.29000
C1431       C  0.17999769  0.11869133  0.26168143     0.06500
C1432       C  0.17398515  0.11242927  0.24018888    -0.27700
H1433       H  0.24586813  0.12556986  0.27218748     0.11200
H1434       H  0.27366506  0.12392386  0.24311773     0.12400
H1435       H  0.16699288  0.10164548  0.19783607     0.11400
H1436       H  0.19490159  0.09928096  0.16886248     0.10700
H1437       H  0.23310555  0.10537345  0.15649101     0.16100
H1438       H  0.28279142  0.12201409  0.20385807     0.12000
H1439       H  0.20721927  0.12568620  0.28334227     0.14800
H1440       H  0.15678571  0.11061994  0.23600595     0.14600
C1441       C  0.10706602  0.20012262  0.18635672    -0.18300
C1442       C  0.10544997  0.18350959  0.20202900    -0.20400
C1443       C  0.10541583  0.18867014  0.22448274     0.20200
C1444       C  0.10637292  0.21085726  0.23125138    -0.03400
C1445       C  0.10805332  0.22760785  0.21544027    -0.06400
C1446       C  0.10867908  0.22213241  0.19291821     0.20500
C1447       C  0.11013738  0.24970308  0.22218838     0.18700
C1448       C  0.10963388  0.25491226  0.24465791    -0.17900
C1449       C  0.10807309  0.23827417  0.26036875    -0.20100
C1450       C  0.10693471  0.21621520  0.25381202     0.20100
C1451       C  0.10786691  0.19935289  0.26933139    -0.33100
C1452       C  0.10816084  0.17734971  0.26251574     0.00800
C1453       C  0.10596434  0.17200845  0.24026420    -0.24500
C1454       C  0.11180003  0.23865046  0.17735340    -0.29000
C1455       C  0.11482466  0.26052213  0.18397834     0.06500
C1456       C  0.11356643  0.26605121  0.20638073    -0.27700
H1457       H  0.10757847  0.19571695  0.16910432     0.11200
H1458       H  0.10482756  0.16658032  0.19659795     0.12400
H1459       H  0.11106440  0.27179357  0.25009332     0.11400
H1460       H  0.10841646  0.24260830  0.27764571     0.10700
H1461       H  0.10990903  0.20327898  0.28660978     0.16100
H1462       H  0.10673974  0.15496663  0.23515626     0.12000
H1463       H  0.11293813  0.23429441  0.16010317     0.14800
H1464       H  0.11582688  0.28294445  0.21152483     0.14600
C1465       C  0.26302226  0.09913343  0.35936847    -0.18300
C1466       C  0.24029382  0.09654231  0.35682494    -0.20400
C1467       C  0.22586842  0.11354261  0.36265651     0.20200
C1468       C  0.23436681  0.13281405  0.37241896    -0.03400
C1469       C  0.25723669  0.13527122  0.37532138    -0.06400
C1470       C  0.27171494  0.11866787  0.36803515     0.20500
C1471       C  0.26567326  0.15504218  0.38400812     0.18700
C1472       C  0.25128860  0.17179061  0.39049230    -0.17900
C1473       C  0.22871654  0.16950046  0.38729002    -0.20100
C1474       C  0.22018623  0.15032706  0.37778811     0.20100
C1475       C  0.19799102  0.14904874  0.37206859    -0.33100
C1476       C  0.18971389  0.13051486  0.36116294     0.00800
C1477       C  0.20339830  0.11236864  0.35738671    -0.24500
C1478       C  0.29451384  0.12261521  0.36810389    -0.29000
C1479       C  0.30273388  0.14278329  0.37570831     0.06500
C1480       C  0.28835724  0.15844328  0.38449351    -0.27700
H1481       H  0.27384114  0.08614790  0.35384944     0.11200
H1482       H  0.23407333  0.08161120  0.34940392     0.12400
H1483       H  0.25756956  0.18705927  0.39715198     0.11400
H1484       H  0.21800550  0.18304176  0.39153193     0.10700
H1485       H  0.18739803  0.16310575  0.37470846     0.16100
H1486       H  0.19703597  0.09827096  0.34854722     0.12000
H1487       H  0.30565592  0.11075223  0.36090148     0.14800
H1488       H  0.29479700  0.17412896  0.38997424     0.14600
C1489       C  0.34488606  0.10302744  0.26906186    -0.18300
C1490       C  0.34127180  0.09926627  0.24663796    -0.20400
C1491       C  0.35101328  0.11285398  0.23076985     0.20200
C1492       C  0.36521923  0.12988479  0.23750944    -0.03400
C1493       C  0.36856540  0.13390993  0.26013966    -0.06400
C1494       C  0.35809776  0.12059872  0.27602571     0.20500
C1495       C  0.38124077  0.15210366  0.26683888     0.18700
C1496       C  0.39126567  0.16549101  0.25098735    -0.17900
C1497       C  0.38822443  0.16131347  0.22859965    -0.20100
C1498       C  0.37492599  0.14382231  0.22169228     0.20100
C1499       C  0.36987838  0.14103368  0.19937418    -0.33100
C1500       C  0.35456045  0.12515590  0.19281934     0.00800
C1501       C  0.34561311  0.11073276  0.20843954    -0.24500
C1502       C  0.35980617  0.12602773  0.29846994    -0.29000
C1503       C  0.37125509  0.14495558  0.30501121     0.06500
C1504       C  0.38248067  0.15747233  0.28919228    -0.27700
H1505       H  0.33669632  0.09266673  0.28097713     0.11200
H1506       H  0.33035108  0.08610373  0.24172651     0.12400
H1507       H  0.40097208  0.17956914  0.25590876     0.11400
H1508       H  0.39565159  0.17224571  0.21668836     0.10700
H1509       H  0.37612557  0.15261900  0.18737873     0.16100
H1510       H  0.33331313  0.09888960  0.20336262     0.12000
H1511       H  0.35064138  0.11673874  0.31058231     0.14800
H1512       H  0.39100000  0.17228826  0.29422493     0.14600
C1513       C  0.36778604  0.48540462  0.21395102    -0.18300
C1514       C  0.36718803  0.50827457  0.21412901    -0.20400
C1515       C  0.36882690  0.52008072  0.19443951     0.20200
C1516       C  0.37071765  0.50878722  0.17429065    -0.03400
C1517       C  0.37116385  0.48557998  0.17409193    -0.06400
C1518       C  0.36994707  0.47395375  0.19407248     0.20500
C1519       C  0.37309352  0.47404404  0.15402573     0.18700
C1520       C  0.37439996  0.48598253  0.13432107    -0.17900
C1521       C  0.37412040  0.50903819  0.13453802    -0.20100
C1522       C  0.37242764  0.52066305  0.15445567     0.20100
C1523       C  0.37261742  0.54386360  0.15500428    -0.33100
C1524       C  0.37092884  0.55520629  0.17518630     0.00800
C1525       C  0.36884609  0.54300773  0.19471548    -0.24500
C1526       C  0.37119825  0.45107205  0.19397267    -0.29000
C1527       C  0.37344522  0.43932671  0.17420509     0.06500
C1528       C  0.37399281  0.45087332  0.15415983    -0.27700
H1529       H  0.36672812  0.47666401  0.22940584     0.11200
H1530       H  0.36566301  0.51675209  0.22972630     0.12400
H1531       H  0.37585764  0.47749038  0.11873184     0.11400
H1532       H  0.37535975  0.51778504  0.11910613     0.10700
H1533       H  0.37414209  0.55302466  0.13983482     0.16100
H1534       H  0.36755589  0.55137345  0.21040416     0.12000
H1535       H  0.37041576  0.44231622  0.20945647     0.14800
H1536       H  0.37571284  0.44191719  0.13885072     0.14600
C1537       C  0.38959401  0.22864262  0.16638908    -0.18300
C1538       C  0.39258387  0.25115032  0.16976708    -0.20400
C1539       C  0.38413829  0.26637079  0.15471796     0.20200
C1540       C  0.37344439  0.25882692  0.13554838    -0.03400
C1541       C  0.37056819  0.23606034  0.13205363    -0.06400
C1542       C  0.37817172  0.22097636  0.14787677     0.20500
C1543       C  0.35872960  0.22849393  0.11355752     0.18700
C1544       C  0.35067993  0.24374252  0.09831144    -0.17900
C1545       C  0.35337536  0.26629739  0.10186210    -0.20100
C1546       C  0.36430368  0.27402999  0.12065247     0.20100
C1547       C  0.36501195  0.29658960  0.12555026    -0.33100
C1548       C  0.37483563  0.30401915  0.14505158     0.00800
C1549       C  0.38489358  0.28893972  0.15923339    -0.24500
C1550       C  0.37274768  0.19870663  0.14579224    -0.29000
C1551       C  0.35984876  0.19129024  0.12814853     0.06500
C1552       C  0.35370373  0.20603161  0.11156156    -0.27700
H1553       H  0.39554561  0.21725807  0.17866746     0.11200
H1554       H  0.40079969  0.25667818  0.18456728     0.12400
H1555       H  0.34155859  0.23825447  0.08403886     0.11400
H1556       H  0.34630347  0.27771522  0.09024418     0.10700
H1557       H  0.35669557  0.30821499  0.11499014     0.16100
H1558       H  0.39187800  0.29469719  0.17459666     0.12000
H1559       H  0.37709383  0.18735803  0.15878809     0.14800
H1560       H  0.34324788  0.20039081  0.09828187     0.14600
C1561       C  0.24681956  0.33244736  0.10774697    -0.18300
C1562       C  0.26922214  0.33618490  0.11098390    -0.20400
C1563       C  0.27634536  0.35327622  0.12469823     0.20200
C1564       C  0.26070218  0.36707549  0.13489667    -0.03400
C1565       C  0.23804216  0.36350074  0.13135698    -0.06400
C1566       C  0.23114871  0.34589657  0.11796427     0.20500
C1567       C  0.22230657  0.37669216  0.14221846     0.18700
C1568       C  0.22947494  0.39358737  0.15620806    -0.17900
C1569       C  0.25192705  0.39692648  0.15996681    -0.20100
C1570       C  0.26764300  0.38357409  0.14963083     0.20100
C1571       C  0.29003648  0.38544405  0.15482333    -0.33100
C1572       C  0.30554721  0.37128053  0.14519813     0.00800
C1573       C  0.29872596  0.35582039  0.12955447    -0.24500
C1574       C  0.20874491  0.34113466  0.11613910    -0.29000
C1575       C  0.19302690  0.35351092  0.12766046     0.06500
C1576       C  0.19979173  0.37177344  0.14006025    -0.27700
H1577       H  0.24173505  0.31871533  0.09761614     0.11200
H1578       H  0.28097487  0.32528712  0.10326438     0.12400
H1579       H  0.21769323  0.40379447  0.16478678     0.11400
H1580       H  0.25698230  0.40962631  0.17137724     0.10700
H1581       H  0.29528265  0.39694132  0.16739825     0.16100
H1582       H  0.31058922  0.34438708  0.12279953     0.12000
H1583       H  0.20355830  0.32670964  0.10703623     0.14800
H1584       H  0.18777627  0.38083572  0.14958395     0.14600
C1585       C  0.37803526  0.24113015  0.26244075    -0.18300
C1586       C  0.37839869  0.25677953  0.24573324    -0.20400
C1587       C  0.38242886  0.27889863  0.25066598     0.20200
C1588       C  0.38705257  0.28523635  0.27250552    -0.03400
C1589       C  0.38678500  0.26939884  0.28939466    -0.06400
C1590       C  0.38175132  0.24736931  0.28431612     0.20500
C1591       C  0.39050783  0.27575669  0.31144074     0.18700
C1592       C  0.39521000  0.29781586  0.31620491    -0.17900
C1593       C  0.39542514  0.31354728  0.29943367    -0.20100
C1594       C  0.39097645  0.30749395  0.27759190     0.20100
C1595       C  0.38939473  0.32336479  0.26092443    -0.33100
C1596       C  0.38366269  0.31721331  0.23934395     0.00800
C1597       C  0.38092215  0.29487031  0.23427011    -0.24500
C1598       C  0.37938506  0.23215347  0.30128541    -0.29000
C1599       C  0.38199259  0.23855365  0.32327752     0.06500
C1600       C  0.38832797  0.26014269  0.32833409    -0.27700
H1601       H  0.37428406  0.22423296  0.25832855     0.11200
H1602       H  0.37493804  0.25166906  0.22901704     0.12400
H1603       H  0.39815710  0.30300904  0.33298638     0.11400
H1604       H  0.39854992  0.33054425  0.30363167     0.10700
H1605       H  0.39149133  0.34055685  0.26499657     0.16100
H1606       H  0.37665641  0.28993907  0.21767558     0.12000
H1607       H  0.37448991  0.21544867  0.29749458     0.14800
H1608       H  0.39006900  0.26507175  0.34537556     0.14600
C1609       C  0.21070640  0.51376467  0.36228821    -0.18300
C1610       C  0.21146727  0.49088276  0.36222561    -0.20400
C1611       C  0.19265297  0.47856981  0.36719534     0.20200
C1612       C  0.17269047  0.48938660  0.37171110    -0.03400
C1613       C  0.17188088  0.51259317  0.37164444    -0.06400
C1614       C  0.19110030  0.52472989  0.36725999     0.20500
C1615       C  0.15203972  0.52362984  0.37639360     0.18700
C1616       C  0.13310158  0.51119019  0.38078852    -0.17900
C1617       C  0.13393777  0.48815466  0.38097286    -0.20100
C1618       C  0.15370864  0.47704901  0.37666929     0.20100
C1619       C  0.15498022  0.45391701  0.37751070    -0.33100
C1620       C  0.17504146  0.44303888  0.37342983     0.00800
C1621       C  0.19365566  0.45563900  0.36802915    -0.24500
C1622       C  0.19060855  0.54762544  0.36843216    -0.29000
C1623       C  0.17118213  0.55885626  0.37380763     0.06500
C1624       C  0.15172338  0.54681263  0.37719342    -0.27700
H1625       H  0.22555826  0.52290259  0.35874310     0.11200
H1626       H  0.22688727  0.48280460  0.35859700     0.12400
H1627       H  0.11769180  0.51928017  0.38440985     0.11400
H1628       H  0.11913639  0.47901960  0.38470738     0.10700
H1629       H  0.14047530  0.44444730  0.38158879     0.16100
H1630       H  0.20917189  0.44760150  0.36469326     0.12000
H1631       H  0.20557385  0.55680417  0.36539893     0.14800
H1632       H  0.13668131  0.55538004  0.38127479     0.14600
C1633       C  0.10459725  0.33212205  0.24906478    -0.18300
C1634       C  0.10715339  0.33571715  0.27160297    -0.20400
C1635       C  0.11907907  0.35387824  0.27925173     0.20200
C1636       C  0.12776684  0.36912264  0.26411078    -0.03400
C1637       C  0.12526553  0.36543629  0.24131719    -0.06400
C1638       C  0.11392858  0.34664072  0.23381436     0.20500
C1639       C  0.13535945  0.37972053  0.22607884     0.18700
C1640       C  0.14697431  0.39808796  0.23379976    -0.17900
C1641       C  0.14937117  0.40180058  0.25640097    -0.20100
C1642       C  0.14028124  0.38714313  0.27169154     0.20100
C1643       C  0.14494729  0.38913093  0.29424732    -0.33100
C1644       C  0.13763979  0.37303134  0.30902825     0.00800
C1645       C  0.12398711  0.35604201  0.30161735    -0.24500
C1646       C  0.11332280  0.34193128  0.21126885    -0.29000
C1647       C  0.12417190  0.35551447  0.19615980     0.06500
C1648       C  0.13481207  0.37459446  0.20352939    -0.27700
H1649       H  0.09593993  0.31758190  0.24355357     0.11200
H1650       H  0.10045488  0.32385848  0.28304500     0.12400
H1651       H  0.15479543  0.40923132  0.22234942     0.11400
H1652       H  0.15902705  0.41569170  0.26190723     0.10700
H1653       H  0.15600831  0.40187015  0.29995631     0.16100
H1654       H  0.11881752  0.34340597  0.31305086     0.12000
H1655       H  0.10578126  0.32682602  0.20556834     0.14800
H1656       H  0.14379204  0.38463005  0.19188152     0.14600
C1657       C  0.16052743  0.25173519  0.39881658    -0.18300
C1658       C  0.15601492  0.22940961  0.39559277    -0.20400
C1659       C  0.13966464  0.22275072  0.38074516     0.20200
C1660       C  0.12671645  0.23882908  0.37022118    -0.03400
C1661       C  0.13098085  0.26139687  0.37382707    -0.06400
C1662       C  0.14855017  0.26781774  0.38749570     0.20500
C1663       C  0.11877848  0.27745872  0.36241162     0.18700
C1664       C  0.10179438  0.27080739  0.34831914    -0.17900
C1665       C  0.09788963  0.24849909  0.34440387    -0.20100
C1666       C  0.11068672  0.23241960  0.35475729     0.20100
C1667       C  0.10892825  0.21024774  0.34863676    -0.33100
C1668       C  0.12269984  0.19433390  0.35802704     0.00800
C1669       C  0.13725758  0.20050307  0.37486887    -0.24500
C1670       C  0.15483945  0.29000653  0.38829661    -0.29000
C1671       C  0.14352965  0.30591241  0.37596570     0.06500
C1672       C  0.12487051  0.29970243  0.36392804    -0.27700
H1673       H  0.17394073  0.25639371  0.40953731     0.11200
H1674       H  0.16604612  0.21734054  0.40390981     0.12400
H1675       H  0.09220131  0.28286913  0.33949519     0.11400
H1676       H  0.08539339  0.24384227  0.33262228     0.10700
H1677       H  0.09794033  0.20554832  0.33542241     0.16100
H1678       H  0.14825061  0.18834561  0.38174961     0.12000
H1679       H  0.16939857  0.29474864  0.39739229     0.14800
H1680       H  0.11644183  0.31184315  0.35405147     0.14600
C1681       C  0.30751078  0.29217034  0.40685610    -0.18300
C1682       C  0.29214474  0.30925172  0.40691585    -0.20400
C1683       C  0.27098840  0.30593093  0.39841368     0.20200
C1684       C  0.26490344  0.28479541  0.39094656    -0.03400
C1685       C  0.28033792  0.26754695  0.39104176    -0.06400
C1686       C  0.30195080  0.27144229  0.39839053     0.20500
C1687       C  0.27446609  0.24675581  0.38262432     0.18700
C1688       C  0.25296753  0.24303437  0.37526048    -0.17900
C1689       C  0.23775413  0.26014938  0.37497239    -0.20100
C1690       C  0.24378622  0.28117584  0.38219509     0.20100
C1691       C  0.22948969  0.29888196  0.37965060    -0.33100
C1692       C  0.23591765  0.32018693  0.38573264     0.00800
C1693       C  0.25625934  0.32354879  0.39602674    -0.24500
C1694       C  0.31788127  0.25495345  0.39598700    -0.29000
C1695       C  0.31245835  0.23471504  0.38616628     0.06500
C1696       C  0.29047791  0.23043310  0.38049561    -0.27700
H1697       H  0.32397115  0.29538149  0.41277632     0.11200
H1698       H  0.29706851  0.32527446  0.41288350     0.12400
H1699       H  0.24815641  0.22710076  0.36895686     0.11400
H1700       H  0.22148783  0.25711358  0.36843912     0.10700
H1701       H  0.21363413  0.29628917  0.37195848     0.16100
H1702       H  0.26119119  0.34000885  0.40067459     0.12000
H1703       H  0.33472186  0.25833482  0.40063479     0.14800
H1704       H  0.28603006  0.21481556  0.37318704     0.14600
C1705       C  0.29642113  0.39546342  0.31425389    -0.18300
C1706       C  0.31331633  0.39597242  0.29866486    -0.20400
C1707       C  0.30879906  0.39218487  0.27637883     0.20200
C1708       C  0.28691176  0.38824796  0.26969269    -0.03400
C1709       C  0.26987633  0.38766540  0.28544044    -0.06400
C1710       C  0.27470853  0.39111254  0.30784611     0.20500
C1711       C  0.24817245  0.38282680  0.27886344     0.18700
C1712       C  0.24360125  0.37919983  0.25653977    -0.17900
C1713       C  0.26046715  0.37975034  0.24093946    -0.20100
C1714       C  0.28217613  0.38393086  0.24741347     0.20100
C1715       C  0.29937649  0.38268333  0.23221122    -0.33100
C1716       C  0.32122456  0.38559473  0.23896511     0.00800
C1717       C  0.32586458  0.39108346  0.26085337    -0.24500
C1718       C  0.25792229  0.38932981  0.32355583    -0.29000
C1719       C  0.23640543  0.38367603  0.31726670     0.06500
C1720       C  0.23159114  0.38090270  0.29479820    -0.27700
H1721       H  0.30041054  0.39806372  0.33141059     0.11200
H1722       H  0.32999524  0.39890309  0.30410923     0.12400
H1723       H  0.22704166  0.37549359  0.25119869     0.11400
H1724       H  0.25660803  0.37641496  0.22387154     0.10700
H1725       H  0.29593866  0.37820678  0.21528760     0.16100
H1726       H  0.34279528  0.39283597  0.26606562     0.12000
H1727       H  0.26187019  0.39133692  0.34081033     0.14800
H1728       H  0.21508709  0.37652744  0.28975893     0.14600
C1729       C  0.48430061  0.61519719  0.21571529    -0.18300
C1730       C  0.50720709  0.61550318  0.21645955    -0.20400
C1731       C  0.51947001  0.61972139  0.19741064     0.20200
C1732       C  0.50857375  0.62369384  0.17737617    -0.03400
C1733       C  0.48531736  0.62358528  0.17666430    -0.06400
C1734       C  0.47322332  0.61922677  0.19593320     0.20500
C1735       C  0.47419663  0.62776263  0.15675210     0.18700
C1736       C  0.48660498  0.63189191  0.13769630    -0.17900
C1737       C  0.50967727  0.63178683  0.13835593    -0.20100
C1738       C  0.52088824  0.62770465  0.15811957     0.20100
C1739       C  0.54410016  0.62755677  0.15905482    -0.33100
C1740       C  0.55504782  0.62380662  0.17913843     0.00800
C1741       C  0.54244376  0.61995935  0.19816216    -0.24500
C1742       C  0.45024855  0.61887006  0.19519711    -0.29000
C1743       C  0.43879289  0.62293916  0.17550859     0.06500
C1744       C  0.45095670  0.62758033  0.15630121    -0.27700
H1745       H  0.47522846  0.61181854  0.23065836     0.11200
H1746       H  0.51534791  0.61237449  0.23196345     0.12400
H1747       H  0.47845916  0.63511658  0.12222176     0.11400
H1748       H  0.51876193  0.63493949  0.12337435     0.10700
H1749       H  0.55358835  0.63056806  0.14428708     0.16100
H1750       H  0.55055176  0.61684551  0.21369815     0.12000
H1751       H  0.44124157  0.61545051  0.21018182     0.14800
H1752       H  0.44239970  0.63072981  0.14102809     0.14600
C1753       C  0.70559066  0.59854462  0.31403047    -0.18300
C1754       C  0.68823219  0.59731572  0.29901722    -0.20400
C1755       C  0.69160146  0.60256638  0.27682951     0.20200
C1756       C  0.71293828  0.60823422  0.26956465    -0.03400
C1757       C  0.73043159  0.60949189  0.28470925    -0.06400
C1758       C  0.72661593  0.60503990  0.30710858     0.20500
C1759       C  0.75146766  0.61624826  0.27759972     0.18700
C1760       C  0.75504207  0.62077280  0.25528613    -0.17900
C1761       C  0.73771337  0.61960924  0.24029780    -0.20100
C1762       C  0.71655916  0.61386705  0.24739771     0.20100
C1763       C  0.69873039  0.61505860  0.23302929    -0.33100
C1764       C  0.67732042  0.61084955  0.24048181     0.00800
C1765       C  0.67385554  0.60365789  0.26208745    -0.24500
C1766       C  0.74360971  0.60812770  0.32233591    -0.29000
C1767       C  0.76430609  0.61597196  0.31554740     0.06500
C1768       C  0.76828227  0.61934474  0.29304352    -0.27700
H1769       H  0.70242601  0.59499824  0.33118378     0.11200
H1770       H  0.67202661  0.59289959  0.30489450     0.12400
H1771       H  0.77110029  0.62584560  0.24953307     0.11400
H1772       H  0.74071283  0.62385551  0.22326869     0.10700
H1773       H  0.70127795  0.62070412  0.21632235     0.16100
H1774       H  0.65726240  0.60071589  0.26784147     0.12000
H1775       H  0.74035268  0.60541084  0.33963391     0.14800
H1776       H  0.78418182  0.62525683  0.28762953     0.14600
C1777       C  0.48732160  0.86022907  0.36826613    -0.18300
C1778       C  0.51034108  0.86111597  0.36854378    -0.20400
C1779       C  0.52281912  0.84176335  0.36936646     0.20200
C1780       C  0.51188543  0.82131317  0.36923460    -0.03400
C1781       C  0.48868411  0.82041968  0.36883087    -0.06400
C1782       C  0.47630394  0.83997605  0.36874291     0.20500
C1783       C  0.47790222  0.79993112  0.36907416     0.18700
C1784       C  0.49028677  0.78054939  0.36916656    -0.17900
C1785       C  0.51319182  0.78143199  0.36968009    -0.20100
C1786       C  0.52410192  0.80170693  0.37004930     0.20100
C1787       C  0.54699396  0.80263417  0.37175174    -0.33100
C1788       C  0.55811362  0.82286976  0.37262804     0.00800
C1789       C  0.54594009  0.84243371  0.37085510    -0.24500
C1790       C  0.45320335  0.83890296  0.36965007    -0.29000
C1791       C  0.44237538  0.81848914  0.37056193     0.06500
C1792       C  0.45493733  0.79911479  0.36977027    -0.27700
H1793       H  0.47812375  0.87542404  0.36802076     0.11200
H1794       H  0.51838085  0.87697562  0.36850629     0.12400
H1795       H  0.48224364  0.76468438  0.36924243     0.11400
H1796       H  0.52237787  0.76623264  0.37014649     0.10700
H1797       H  0.55620303  0.78745169  0.37263167     0.16100
H1798       H  0.55435975  0.85809969  0.37134248     0.12000
H1799       H  0.44370084  0.85391742  0.36996096     0.14800
H1800       H  0.44686797  0.78326115  0.37030839     0.14600
C1801       C  0.60198661  0.69987433  0.31882865    -0.18300
C1802       C  0.60130276  0.68377999  0.30234048    -0.20400
C1803       C  0.60490119  0.68940851  0.28024291     0.20200
C1804       C  0.60823320  0.71162842  0.27463905    -0.03400
C1805       C  0.60910884  0.72780146  0.29124422    -0.06400
C1806       C  0.60637872  0.72186093  0.31351931     0.20500
C1807       C  0.61386054  0.74974745  0.28560630     0.18700
C1808       C  0.61644609  0.75559997  0.26349142    -0.17900
C1809       C  0.61537773  0.73964172  0.24706188    -0.20100
C1810       C  0.61187202  0.71758685  0.25253714     0.20100
C1811       C  0.61327788  0.70130622  0.23641100    -0.33100
C1812       C  0.61169796  0.67901601  0.24203152     0.00800
C1813       C  0.60651927  0.67317999  0.26382750    -0.24500
C1814       C  0.60917802  0.73783357  0.33003503    -0.29000
C1815       C  0.61528468  0.75933249  0.32436699     0.06500
C1816       C  0.61701612  0.76528786  0.30220303    -0.27700
H1817       H  0.59975372  0.69501005  0.33580216     0.11200
H1818       H  0.59859020  0.66683500  0.30694971     0.12400
H1819       H  0.61991468  0.77243058  0.25894989     0.11400
H1820       H  0.61806780  0.74444209  0.23013088     0.10700
H1821       H  0.61692743  0.70597761  0.21960871     0.16100
H1822       H  0.60517517  0.65602261  0.26827682     0.12000
H1823       H  0.60798110  0.73328555  0.34721237     0.14800
H1824       H  0.62157881  0.78195686  0.29793647     0.14600
C1825       C  0.75890623  0.74188812  0.36812845    -0.18300
C1826       C  0.74325598  0.75857955  0.36938630    -0.20400
C1827       C  0.72258723  0.75451793  0.37873650     0.20200
C1828       C  0.71795961  0.73375380  0.38782096    -0.03400
C1829       C  0.73390437  0.71695702  0.38683296    -0.06400
C1830       C  0.75421167  0.72093660  0.37640901     0.20500
C1831       C  0.72916146  0.69594125  0.39538189     0.18700
C1832       C  0.70873209  0.69217858  0.40539259    -0.17900
C1833       C  0.69280814  0.70874784  0.40608634    -0.20100
C1834       C  0.69708669  0.72947098  0.39696746     0.20100
C1835       C  0.68057973  0.74559121  0.39582210    -0.33100
C1836       C  0.68476075  0.76591703  0.38564048     0.00800
C1837       C  0.70613369  0.77051449  0.37806679    -0.24500
C1838       C  0.76909174  0.70367349  0.37359437    -0.29000
C1839       C  0.76411687  0.68247358  0.38122014     0.06500
C1840       C  0.74450878  0.67886010  0.39284001    -0.27700
H1841       H  0.77449719  0.74522776  0.36022341     0.11200
H1842       H  0.74707245  0.77447513  0.36240988     0.12400
H1843       H  0.70481366  0.67620104  0.41211555     0.11400
H1844       H  0.67694305  0.70517960  0.41330366     0.10700
H1845       H  0.66423272  0.74188425  0.40181116     0.16100
H1846       H  0.70968819  0.78614791  0.37037509     0.12000
H1847       H  0.78434684  0.70655661  0.36485094     0.14800
H1848       H  0.74063308  0.66251320  0.39866720     0.14600
C1849       C  0.60221452  0.74647437  0.16953725    -0.18300
C1850       C  0.60504686  0.76901278  0.16614889    -0.20400
C1851       C  0.61855405  0.77665496  0.14908754     0.20200
C1852       C  0.62849535  0.76146043  0.13465142    -0.03400
C1853       C  0.62577413  0.73868943  0.13817875    -0.06400
C1854       C  0.61290519  0.73118340  0.15597124     0.20500
C1855       C  0.63708418  0.72348617  0.12478226     0.18700
C1856       C  0.65013085  0.73115094  0.10738756    -0.17900
C1857       C  0.65269668  0.75368108  0.10379623    -0.20100
C1858       C  0.64235086  0.76897006  0.11760636     0.20100
C1859       C  0.64686031  0.79150417  0.11566968    -0.33100
C1860       C  0.63817637  0.80646281  0.13091553     0.00800
C1861       C  0.62356165  0.79906519  0.14717417    -0.24500
C1862       C  0.61210467  0.70863154  0.16069419    -0.29000
C1863       C  0.62418367  0.69358325  0.14802633     0.06500
C1864       C  0.63624814  0.70101451  0.12984943    -0.27700
H1865       H  0.59227074  0.74100585  0.18325368     0.11200
H1866       H  0.59724540  0.78046074  0.17732724     0.12400
H1867       H  0.65889167  0.71971304  0.09693703     0.11400
H1868       H  0.66340151  0.75914789  0.09067119     0.10700
H1869       H  0.65868098  0.79716386  0.10359975     0.16100
H1870       H  0.61733350  0.81059415  0.15925692     0.12000
H1871       H  0.60336203  0.70291993  0.17513355     0.14800
H1872       H  0.64605268  0.68944184  0.12051371     0.14600
C1873       C  0.60018236  0.83975087  0.25317231    -0.18300
C1874       C  0.60348321  0.84393458  0.23081895    -0.20400
C1875       C  0.61876855  0.85978331  0.22407109     0.20200
C1876       C  0.62980548  0.87255079  0.24003929    -0.03400
C1877       C  0.62617901  0.86858279  0.26264121    -0.06400
C1878       C  0.61192060  0.85153119  0.26915372     0.20500
C1879       C  0.63811971  0.88047197  0.27863966     0.18700
C1880       C  0.65273743  0.89695489  0.27186894    -0.17900
C1881       C  0.65662697  0.90060517  0.24947888    -0.20100
C1882       C  0.64576073  0.88801309  0.23347524     0.20100
C1883       C  0.65181244  0.88929911  0.21122992    -0.33100
C1884       C  0.64183438  0.87560298  0.19550576     0.00800
C1885       C  0.62454334  0.86176627  0.20180920    -0.24500
C1886       C  0.61094549  0.84542761  0.29134031    -0.29000
C1887       C  0.62383307  0.85626820  0.30713612     0.06500
C1888       C  0.63654149  0.87447429  0.30091542    -0.27700
H1889       H  0.58906963  0.82670714  0.25793626     0.11200
H1890       H  0.59484582  0.83403378  0.21879865     0.12400
H1891       H  0.66195668  0.90631695  0.28388843     0.11400
H1892       H  0.66877826  0.91268295  0.24470296     0.10700
H1893       H  0.66537887  0.89975171  0.20635042     0.16100
H1894       H  0.61724059  0.85085849  0.18974498     0.12000
H1895       H  0.60131830  0.83124574  0.29615356     0.14800
H1896       H  0.64681732  0.88253926  0.31303794     0.14600
C1897       C  0.01069257  0.64147925  0.11047659    -0.18300
C1898       C  0.98767840  0.64183315  0.10985206    -0.20400
C1899       C  0.97604736  0.66077091  0.11596520     0.20200
C1900       C  0.98784947  0.67978765  0.12204625    -0.03400
C1901       C  0.01109685  0.67948354  0.12252732    -0.06400
C1902       C  0.02258467  0.66009405  0.11711554     0.20500
C1903       C  0.02281006  0.69851037  0.12866469     0.18700
C1904       C  0.01127393  0.71771254  0.13401229    -0.17900
C1905       C  0.98830434  0.71795734  0.13370329    -0.20100
C1906       C  0.97644099  0.69903209  0.12794123     0.20100
C1907       C  0.95338653  0.69898205  0.12822422    -0.33100
C1908       C  0.94133818  0.67993634  0.12274329     0.00800
C1909       C  0.95288471  0.66094843  0.11635857    -0.24500
C1910       C  0.04569492  0.65967612  0.11849397    -0.29000
C1911       C  0.05743267  0.67859509  0.12466315     0.06500
C1912       C  0.04583118  0.69799142  0.12945764    -0.27700
H1913       H  0.01919448  0.62653765  0.10595973     0.11200
H1914       H  0.97895205  0.62714611  0.10488396     0.12400
H1915       H  0.02001883  0.73249649  0.13866593     0.11400
H1916       H  0.97980382  0.73292511  0.13815293     0.10700
H1917       H  0.94481550  0.71383308  0.13295982     0.16100
H1918       H  0.94387061  0.64630683  0.11176111     0.12000
H1919       H  0.05456446  0.64483120  0.11433829     0.14800
H1920       H  0.05478689  0.71267759  0.13408715     0.14600
C1921       C  0.74095982  0.75653488  0.12418194    -0.18300
C1922       C  0.75769934  0.74095646  0.12386880    -0.20400
C1923       C  0.77910772  0.74703016  0.11799846     0.20200
C1924       C  0.78362265  0.76873582  0.11139538    -0.03400
C1925       C  0.76672789  0.78449446  0.11181698    -0.06400
C1926       C  0.74543698  0.77840871  0.11870535     0.20500
C1927       C  0.77138917  0.80651202  0.10646746     0.18700
C1928       C  0.79267215  0.81235500  0.09975748    -0.17900
C1929       C  0.80945752  0.79668564  0.09929135    -0.20100
C1930       C  0.80522335  0.77493186  0.10553615     0.20100
C1931       C  0.82231294  0.75954364  0.10723452    -0.33100
C1932       C  0.81791005  0.73840133  0.11522515     0.00800
C1933       C  0.79627610  0.73205080  0.11982061    -0.24500
C1934       C  0.72927130  0.79446687  0.12118589    -0.29000
C1935       C  0.73417357  0.81663443  0.11731731     0.06500
C1936       C  0.75499894  0.82244893  0.10908413    -0.27700
H1937       H  0.72467370  0.75162424  0.12939709     0.11200
H1938       H  0.75403827  0.72429093  0.12885663     0.12400
H1939       H  0.79648958  0.82918062  0.09549720     0.11400
H1940       H  0.82588729  0.80173104  0.09468334     0.10700
H1941       H  0.83910764  0.76440155  0.10386165     0.16100
H1942       H  0.79299492  0.71563022  0.12585888     0.12000
H1943       H  0.71319615  0.78981093  0.12726503     0.14800
H1944       H  0.75886031  0.83950876  0.10588365     0.14600
C1945       C  0.74754012  0.60405386  0.16876360    -0.18300
C1946       C  0.76987315  0.60731189  0.16424713    -0.20400
C1947       C  0.77647549  0.62063554  0.14662692     0.20200
C1948       C  0.76033948  0.62971286  0.13266954    -0.03400
C1949       C  0.73775392  0.62615089  0.13704506    -0.06400
C1950       C  0.73137767  0.61389363  0.15561846     0.20500
C1951       C  0.72159672  0.63617404  0.12376115     0.18700
C1952       C  0.72821065  0.64882332  0.10567671    -0.17900
C1953       C  0.75052502  0.65265511  0.10158263    -0.20100
C1954       C  0.76668643  0.64367268  0.11531891     0.20100
C1955       C  0.78887750  0.64968020  0.11300324    -0.33100
C1956       C  0.80489722  0.64165182  0.12755381     0.00800
C1957       C  0.79872276  0.62638407  0.14372984    -0.24500
C1958       C  0.70910345  0.61305673  0.16162374    -0.29000
C1959       C  0.69306178  0.62423346  0.14929354     0.06500
C1960       C  0.69927132  0.63479452  0.12975352    -0.27700
H1961       H  0.74291834  0.59449148  0.18303085     0.11200
H1962       H  0.78197588  0.60016005  0.17511533     0.12400
H1963       H  0.71609866  0.65657608  0.09524702     0.11400
H1964       H  0.75511538  0.66328830  0.08809149     0.10700
H1965       H  0.79351352  0.66180364  0.10082978     0.16100
H1966       H  0.81089700  0.62067236  0.15537561     0.12000
H1967       H  0.70436864  0.60490217  0.17672645     0.14800
H1968       H  0.68704409  0.64368243  0.12040263     0.14600
C1969       C  0.84704880  0.59935468  0.25434221    -0.18300
C1970       C  0.84850926  0.60320016  0.23172618    -0.20400
C1971       C  0.86141419  0.62047028  0.22361358     0.20200
C1972       C  0.87353472  0.63361087  0.23842845    -0.03400
C1973       C  0.87170771  0.63000222  0.26130988    -0.06400
C1974       C  0.85817512  0.61294150  0.26928282     0.20500
C1975       C  0.88215064  0.64441554  0.27620259     0.18700
C1976       C  0.89534460  0.66148695  0.26808590    -0.17900
C1977       C  0.89751853  0.66478790  0.24541875    -0.20100
C1978       C  0.88632903  0.65123086  0.23047115     0.20100
C1979       C  0.88660231  0.65580642  0.20784653    -0.33100
C1980       C  0.87378268  0.64339704  0.19321489     0.00800
C1981       C  0.86143149  0.62562467  0.20111496    -0.24500
C1982       C  0.85450713  0.61091143  0.29197557    -0.29000
C1983       C  0.86333223  0.62632664  0.30664690     0.06500
C1984       C  0.87776124  0.64255526  0.29880238    -0.27700
H1985       H  0.83650954  0.58628125  0.26018829     0.11200
H1986       H  0.83910088  0.59297001  0.22059225     0.12400
H1987       H  0.90346930  0.67270617  0.27928289     0.11400
H1988       H  0.90731871  0.67843635  0.23959827     0.10700
H1989       H  0.89542490  0.67003999  0.20180924     0.16100
H1990       H  0.85096864  0.61655973  0.18988555     0.12000
H1991       H  0.84282569  0.59889130  0.29797979     0.14800
H1992       H  0.88407697  0.65481722  0.31010385     0.14600
C1993       C  0.98690550  0.88677925  0.36537041    -0.18300
C1994       C  0.00998317  0.88748430  0.36526561    -0.20400
C1995       C  0.02191448  0.88172917  0.34631442     0.20200
C1996       C  0.01028880  0.87534147  0.32726420    -0.03400
C1997       C  0.98699932  0.87478267  0.32731535    -0.06400
C1998       C  0.97518973  0.88041671  0.34649031     0.20500
C1999       C  0.97555719  0.86868077  0.30808897     0.18700
C2000       C  0.98736540  0.86291403  0.28914146    -0.17900
C2001       C  0.01030715  0.86329739  0.28914759    -0.20100
C2002       C  0.02190557  0.86955625  0.30806805     0.20100
C2003       C  0.04491829  0.87016342  0.30797658    -0.33100
C2004       C  0.05688646  0.87652313  0.32677459     0.00800
C2005       C  0.04516733  0.88227280  0.34598835    -0.24500
C2006       C  0.95195733  0.87979403  0.34629704    -0.29000
C2007       C  0.94047107  0.87416387  0.32695096     0.06500
C2008       C  0.95251431  0.86860829  0.30799977    -0.27700
H2009       H  0.97820826  0.89129061  0.38024061     0.11200
H2010       H  0.01850872  0.89250841  0.38006304     0.12400
H2011       H  0.97883933  0.85813564  0.27425972     0.11400
H2012       H  0.01899991  0.85878199  0.27426949     0.10700
H2013       H  0.05354281  0.86563695  0.29305237     0.16100
H2014       H  0.05407902  0.88728758  0.36056573     0.12000
H2015       H  0.94283907  0.88427690  0.36093117     0.14800
H2016       H  0.94386234  0.86412931  0.29307615     0.14600
C2017       C  0.87586481  0.75623144  0.26051194    -0.18300
C2018       C  0.87611806  0.73991376  0.24432610    -0.20400
C2019       C  0.88193835  0.74507163  0.22261189     0.20200
C2020       C  0.88905972  0.76648564  0.21746952    -0.03400
C2021       C  0.88905246  0.78290973  0.23387239    -0.06400
C2022       C  0.88161918  0.77789362  0.25525358     0.20500
C2023       C  0.89518181  0.80461934  0.22852830     0.18700
C2024       C  0.90231720  0.80939844  0.20713044    -0.17900
C2025       C  0.90213097  0.79315619  0.19082735    -0.20100
C2026       C  0.89491361  0.77182577  0.19567082     0.20100
C2027       C  0.89217255  0.75616465  0.17890313    -0.33100
C2028       C  0.88343769  0.73532844  0.18366573     0.00800
C2029       C  0.87944099  0.72958500  0.20574060    -0.24500
C2030       C  0.87885549  0.79483759  0.27059007    -0.29000
C2031       C  0.88367109  0.81666165  0.26492571     0.06500
C2032       C  0.89279773  0.82135577  0.24427612    -0.27700
H2033       H  0.87043419  0.75207106  0.27694810     0.11200
H2034       H  0.87087870  0.72346636  0.24859139     0.12400
H2035       H  0.90724289  0.82591345  0.20278099     0.11400
H2036       H  0.90690703  0.79748487  0.17423738     0.10700
H2037       H  0.89559097  0.76065353  0.16201529     0.16100
H2038       H  0.87312508  0.71342772  0.20969823     0.12000
H2039       H  0.87206724  0.79122442  0.28667236     0.14800
H2040       H  0.89647504  0.83820996  0.23994606     0.14600
C2041       C  0.79074328  0.90700850  0.19524241    -0.18300
C2042       C  0.80658881  0.90600121  0.21190604    -0.20400
C2043       C  0.80211841  0.89504363  0.23170028     0.20200
C2044       C  0.78109286  0.88595146  0.23515252    -0.03400
C2045       C  0.76513916  0.88693913  0.21835893    -0.06400
C2046       C  0.77013629  0.89705716  0.19805279     0.20500
C2047       C  0.74458320  0.87680044  0.22150767     0.18700
C2048       C  0.73969115  0.86668595  0.24161621    -0.17900
C2049       C  0.75543297  0.86579287  0.25824625    -0.20100
C2050       C  0.77630839  0.87495889  0.25498737     0.20100
C2051       C  0.79274816  0.87242707  0.27082643    -0.33100
C2052       C  0.81415849  0.88026141  0.26699803     0.00800
C2053       C  0.81854233  0.89215823  0.24766696    -0.24500
C2054       C  0.75494603  0.89587176  0.18059670    -0.29000
C2055       C  0.73514083  0.88435828  0.18332983     0.06500
C2056       C  0.72972152  0.87579914  0.20409095    -0.27700
H2057       H  0.79486212  0.91498698  0.17988737     0.11200
H2058       H  0.82257759  0.91326030  0.20905343     0.12400
H2059       H  0.72390524  0.85890430  0.24424495     0.11400
H2060       H  0.75148735  0.85738101  0.27342162     0.10700
H2061       H  0.78907976  0.86337813  0.28571137     0.16100
H2062       H  0.83492264  0.89843376  0.24465631     0.12000
H2063       H  0.75917658  0.90242660  0.16459544     0.14800
H2064       H  0.71429817  0.86715451  0.20631167     0.14600
C2065       C  0.73067238  0.89338872  0.33966838    -0.18300
C2066       C  0.75337137  0.89603932  0.33708354    -0.20400
C2067       C  0.76806494  0.88542504  0.35128171     0.20200
C2068       C  0.75976485  0.87290968  0.36894865    -0.03400
C2069       C  0.73679824  0.87051690  0.37176963    -0.06400
C2070       C  0.72222875  0.88025545  0.35663233     0.20500
C2071       C  0.72849069  0.85712241  0.38878446     0.18700
C2072       C  0.74319524  0.84690444  0.40325743    -0.17900
C2073       C  0.76590824  0.84899678  0.40026022    -0.20100
C2074       C  0.77437537  0.86154242  0.38287395     0.20100
C2075       C  0.79703579  0.86173851  0.37827096    -0.33100
C2076       C  0.80525592  0.87344636  0.36017118     0.00800
C2077       C  0.79079359  0.88584392  0.34721050    -0.24500
C2078       C  0.69967665  0.87538553  0.35777697    -0.29000
C2079       C  0.69145379  0.86119126  0.37402989     0.06500
C2080       C  0.70579904  0.85285411  0.39002005    -0.27700
H2081       H  0.71973060  0.90105410  0.32794846     0.11200
H2082       H  0.75944732  0.90570123  0.32344061     0.12400
H2083       H  0.73713504  0.83656810  0.41639789     0.11400
H2084       H  0.77685907  0.84023437  0.41116245     0.10700
H2085       H  0.80811871  0.85172468  0.38790716     0.16100
H2086       H  0.79706531  0.89431648  0.33285191     0.12000
H2087       H  0.68870045  0.88139663  0.34512429     0.14800
H2088       H  0.69959211  0.84137758  0.40212518     0.14600
C2089       C  0.89672572  0.73023908  0.34474401    -0.18300
C2090       C  0.90001366  0.75274701  0.34173715    -0.20400
C2091       C  0.88777336  0.76805853  0.35387599     0.20200
C2092       C  0.87262270  0.76068214  0.36977512    -0.03400
C2093       C  0.86914484  0.73795359  0.37265416    -0.06400
C2094       C  0.88103035  0.72266205  0.35981911     0.20500
C2095       C  0.85268179  0.73060227  0.38720885     0.18700
C2096       C  0.84058932  0.74590623  0.39949461    -0.17900
C2097       C  0.84416459  0.76840778  0.39677971    -0.20100
C2098       C  0.85980840  0.77599119  0.38165151     0.20100
C2099       C  0.86162444  0.79847927  0.37691780    -0.33100
C2100       C  0.87554551  0.80565566  0.36002127     0.00800
C2101       C  0.88916705  0.79050683  0.34917377    -0.24500
C2102       C  0.87579600  0.70024164  0.36104634    -0.29000
C2103       C  0.85838881  0.69315309  0.37436025     0.06500
C2104       C  0.84744502  0.70823218  0.38796665    -0.27700
H2105       H  0.90589247  0.71876642  0.33468178     0.11200
H2106       H  0.91163470  0.75818405  0.32940363     0.12400
H2107       H  0.82785466  0.74048899  0.41068333     0.11400
H2108       H  0.83411695  0.77989315  0.40593568     0.10700
H2109       H  0.85057940  0.81007576  0.38470826     0.16100
H2110       H  0.89945232  0.79604514  0.33571437     0.12000
H2111       H  0.88372648  0.68866081  0.35006275     0.14800
H2112       H  0.83366692  0.70272569  0.39783337     0.14600
C2113       C  0.48363977  0.21476450  0.38029928    -0.18300
C2114       C  0.50656702  0.21526026  0.37977751    -0.20400
C2115       C  0.51858026  0.19589133  0.37663491     0.20200
C2116       C  0.50735099  0.17580751  0.37385462    -0.03400
C2117       C  0.48409673  0.17533109  0.37420595    -0.06400
C2118       C  0.47228241  0.19491037  0.37758106     0.20500
C2119       C  0.47270084  0.15533045  0.37129718     0.18700
C2120       C  0.48481379  0.13597379  0.36808306    -0.17900
C2121       C  0.50787117  0.13641634  0.36792264    -0.20100
C2122       C  0.51933541  0.15623764  0.37086019     0.20100
C2123       C  0.54250348  0.15686572  0.37098397    -0.33100
C2124       C  0.55382920  0.17688918  0.37377660     0.00800
C2125       C  0.54161670  0.19631274  0.37639929    -0.24500
C2126       C  0.44930998  0.19440097  0.37829608    -0.29000
C2127       C  0.43762442  0.17463476  0.37553199     0.06500
C2128       C  0.44948314  0.15510331  0.37180556    -0.27700
H2129       H  0.47477071  0.22994996  0.38287204     0.11200
H2130       H  0.51491915  0.23081511  0.38195505     0.12400
H2131       H  0.47645281  0.12044012  0.36581174     0.11400
H2132       H  0.51674992  0.12121012  0.36553606     0.10700
H2133       H  0.55170319  0.14180959  0.36881939     0.16100
H2134       H  0.55006523  0.21181731  0.37865839     0.12000
H2135       H  0.44047424  0.20960855  0.38092765     0.14800
H2136       H  0.44070970  0.13977301  0.36964793     0.14600
C2137       C  0.61932953  0.51110265  0.13628777    -0.18300
C2138       C  0.61904830  0.48807620  0.13662264    -0.20400
C2139       C  0.62289724  0.47659812  0.15624548     0.20200
C2140       C  0.62745729  0.48852935  0.17562921    -0.03400
C2141       C  0.62763129  0.51171514  0.17532209    -0.06400
C2142       C  0.62336369  0.52313301  0.15559628     0.20500
C2143       C  0.63163835  0.52345089  0.19490862     0.18700
C2144       C  0.63612979  0.51210360  0.21440401    -0.17900
C2145       C  0.63607675  0.48921856  0.21467676    -0.20100
C2146       C  0.63148302  0.47732274  0.19546508     0.20100
C2147       C  0.63056793  0.45441263  0.19590474    -0.33100
C2148       C  0.62560358  0.44224546  0.17682752     0.00800
C2149       C  0.62200987  0.45348076  0.15694291    -0.24500
C2150       C  0.62265263  0.54628968  0.15575697    -0.29000
C2151       C  0.62563288  0.55790784  0.17556080     0.06500
C2152       C  0.63054896  0.54633332  0.19487434    -0.27700
H2153       H  0.61607087  0.51950773  0.12096785     0.11200
H2154       H  0.61561098  0.47923914  0.12154579     0.12400
H2155       H  0.63938014  0.52093982  0.22952864     0.11400
H2156       H  0.63932988  0.48081483  0.23000626     0.10700
H2157       H  0.63357495  0.44605146  0.21132124     0.16100
H2158       H  0.61824063  0.44430016  0.14214635     0.12000
H2159       H  0.61892004  0.55516493  0.14080588     0.14800
H2160       H  0.63325616  0.55523232  0.21009408     0.14600
C2161       C  0.48807885  0.37444816  0.13525255    -0.18300
C2162       C  0.51114458  0.37407515  0.13473782    -0.20400
C2163       C  0.52330235  0.37252715  0.15430034     0.20200
C2164       C  0.51196024  0.37123244  0.17452963    -0.03400
C2165       C  0.48877846  0.37163875  0.17504627    -0.06400
C2166       C  0.47668982  0.37327332  0.15533940     0.20500
C2167       C  0.47772898  0.37053361  0.19539054     0.18700
C2168       C  0.48972188  0.36901734  0.21496159    -0.17900
C2169       C  0.51256779  0.36856938  0.21445381    -0.20100
C2170       C  0.52376825  0.36974122  0.19437370     0.20100
C2171       C  0.54662282  0.36990482  0.19398603    -0.33100
C2172       C  0.55821769  0.37187800  0.17412169     0.00800
C2173       C  0.54650875  0.37270233  0.15417311    -0.24500
C2174       C  0.45351305  0.37372494  0.15619361    -0.29000
C2175       C  0.44245451  0.37249394  0.17656284     0.06500
C2176       C  0.45484520  0.37096100  0.19597732    -0.27700
H2177       H  0.47914490  0.37571875  0.11992318     0.11200
H2178       H  0.51947298  0.37512508  0.11903526     0.12400
H2179       H  0.48141683  0.36819712  0.23069690     0.11400
H2180       H  0.52149590  0.36747233  0.22980639     0.10700
H2181       H  0.55547426  0.36887043  0.20940995     0.16100
H2182       H  0.55535616  0.37420482  0.13878725     0.12000
H2183       H  0.44415230  0.37499402  0.14111454     0.14800
H2184       H  0.44666595  0.37016887  0.21179008     0.14600
C2185       C  0.60794390  0.29617588  0.31608802    -0.18300
C2186       C  0.60823783  0.31347116  0.30099450    -0.20400
C2187       C  0.61018184  0.30923199  0.27839704     0.20200
C2188       C  0.61129545  0.28727376  0.27092849    -0.03400
C2189       C  0.61114566  0.26984211  0.28616553    -0.06400
C2190       C  0.60974894  0.27435992  0.30885073     0.20500
C2191       C  0.61333692  0.24797135  0.27873598     0.18700
C2192       C  0.61466668  0.24367998  0.25611567    -0.17900
C2193       C  0.61477457  0.26093132  0.24101402    -0.20100
C2194       C  0.61354791  0.28274646  0.24829351     0.20100
C2195       C  0.61552037  0.30011474  0.23341967    -0.33100
C2196       C  0.61510335  0.32191230  0.24080559     0.00800
C2197       C  0.61196370  0.32649352  0.26319720    -0.24500
C2198       C  0.61121924  0.25708538  0.32393981    -0.29000
C2199       C  0.61471820  0.23538964  0.31671402     0.06500
C2200       C  0.61514988  0.23088685  0.29406084    -0.27700
H2201       H  0.60685874  0.29989711  0.33347559     0.11200
H2202       H  0.60737221  0.33018110  0.30703038     0.12400
H2203       H  0.61618708  0.22700012  0.25012593     0.11400
H2204       H  0.61636971  0.25723306  0.22365825     0.10700
H2205       H  0.61827867  0.29672557  0.21612829     0.16100
H2206       H  0.61214648  0.34337260  0.26885419     0.12000
H2207       H  0.61088334  0.26074718  0.34137963     0.14800
H2208       H  0.61767207  0.21421164  0.28837240     0.14600
C2209       C  0.63263394  0.00981082  0.12828960    -0.18300
C2210       C  0.63260134  0.98675700  0.12814806    -0.20400
C2211       C  0.65243241  0.97498891  0.12828945     0.20200
C2212       C  0.67244798  0.98668680  0.12895820    -0.03400
C2213       C  0.67247316  0.00988376  0.12928576    -0.06400
C2214       C  0.65249616  0.02158768  0.12869211     0.20500
C2215       C  0.69258002  0.02133843  0.12993082     0.18700
C2216       C  0.71240507  0.00970814  0.13045064    -0.17900
C2217       C  0.71238713  0.98684342  0.12996434    -0.20100
C2218       C  0.69253953  0.97523135  0.12905065     0.20100
C2219       C  0.69257267  0.95234856  0.12799083    -0.33100
C2220       C  0.67283678  0.94041346  0.12697927     0.00800
C2221       C  0.65271948  0.95182428  0.12749988    -0.24500
C2222       C  0.65285016  0.04477110  0.12826581    -0.29000
C2223       C  0.67298793  0.05625085  0.12863580     0.06500
C2224       C  0.69267046  0.04424846  0.12974695    -0.27700
H2225       H  0.61710174  0.01843350  0.12794261     0.11200
H2226       H  0.61704842  0.97813217  0.12769947     0.12400
H2227       H  0.72797004  0.01831744  0.13100182     0.11400
H2228       H  0.72793340  0.97822978  0.13014521     0.10700
H2229       H  0.70815820  0.94377083  0.12798125     0.16100
H2230       H  0.63741949  0.94275786  0.12681458     0.12000
H2231       H  0.63756488  0.05381208  0.12754429     0.14800
H2232       H  0.70831186  0.05275055  0.13004496     0.14600
C2233       C  0.64946714  0.09625775  0.24493081    -0.18300
C2234       C  0.64659573  0.09884350  0.26761319    -0.20400
C2235       C  0.63236451  0.11495783  0.27588433     0.20200
C2236       C  0.62004066  0.12786839  0.26111696    -0.03400
C2237       C  0.62318926  0.12548325  0.23820015    -0.06400
C2238       C  0.63831703  0.10988962  0.23011770     0.20500
C2239       C  0.61248392  0.13982882  0.22350054     0.18700
C2240       C  0.59764979  0.15541518  0.23174866    -0.17900
C2241       C  0.59430664  0.15757867  0.25441724    -0.20100
C2242       C  0.60588964  0.14432737  0.26924787     0.20100
C2243       C  0.60497520  0.14845530  0.29195197    -0.33100
C2244       C  0.61850030  0.13681346  0.30649225     0.00800
C2245       C  0.63157199  0.11959972  0.29850556    -0.24500
C2246       C  0.64330125  0.10934914  0.20757520    -0.29000
C2247       C  0.63391900  0.12464920  0.19318245     0.06500
C2248       C  0.61806307  0.13941880  0.20107278    -0.27700
H2249       H  0.66112447  0.08421531  0.23900364     0.11200
H2250       H  0.65612192  0.08874905  0.27870727     0.12400
H2251       H  0.58921622  0.16648219  0.22070360     0.11400
H2252       H  0.58337920  0.17027622  0.26038226     0.10700
H2253       H  0.59544495  0.16218871  0.29808364     0.16100
H2254       H  0.64245382  0.11105903  0.30968966     0.12000
H2255       H  0.65599995  0.09842412  0.20155504     0.14800
H2256       H  0.61124508  0.15156607  0.19001869     0.14600
C2257       C  0.60387720  0.25165665  0.16746785    -0.18300
C2258       C  0.60641669  0.22926422  0.16326237    -0.20400
C2259       C  0.61947785  0.22208566  0.14568085     0.20200
C2260       C  0.62934214  0.23765460  0.13158725    -0.03400
C2261       C  0.62652401  0.26031983  0.13566322    -0.06400
C2262       C  0.61421274  0.26725304  0.15404984     0.20500
C2263       C  0.63724341  0.27597115  0.12228201     0.18700
C2264       C  0.64999111  0.26874393  0.10444745    -0.17900
C2265       C  0.65309453  0.24627000  0.10064026    -0.20100
C2266       C  0.64327042  0.23060695  0.11443140     0.20100
C2267       C  0.64835527  0.20818185  0.11244207    -0.33100
C2268       C  0.63928845  0.19278227  0.12708398     0.00800
C2269       C  0.62417102  0.19971463  0.14301020    -0.24500
C2270       C  0.61372243  0.28952598  0.15964320    -0.29000
C2271       C  0.62540014  0.30502922  0.14721153     0.06500
C2272       C  0.63631579  0.29837418  0.12796779    -0.27700
H2273       H  0.59440187  0.25676585  0.18165717     0.11200
H2274       H  0.59883701  0.21754142  0.17428641     0.12400
H2275       H  0.65830656  0.28047284  0.09397239     0.11400
H2276       H  0.66374893  0.24115149  0.08732604     0.10700
H2277       H  0.66051755  0.20286808  0.10055361     0.16100
H2278       H  0.61782409  0.18793168  0.15475925     0.12000
H2279       H  0.60542402  0.29469524  0.17455742     0.14800
H2280       H  0.64566967  0.31029156  0.11861727     0.14600
C2281       C  0.98616182  0.13202422  0.36422846    -0.18300
C2282       C  0.00926173  0.13192819  0.36437167    -0.20400
C2283       C  0.02120329  0.12613515  0.34543244     0.20200
C2284       C  0.00958177  0.12004348  0.32629895    -0.03400
C2285       C  0.98629022  0.12037887  0.32607873    -0.06400
C2286       C  0.97443256  0.12650293  0.34508793     0.20500
C2287       C  0.97490559  0.11483591  0.30667992     0.18700
C2288       C  0.98669298  0.10836675  0.28794879    -0.17900
C2289       C  0.00961571  0.10783848  0.28822923    -0.20100
C2290       C  0.02120879  0.11387794  0.30721456     0.20100
C2291       C  0.04422653  0.11407121  0.30723882    -0.33100
C2292       C  0.05618030  0.12055169  0.32599325     0.00800
C2293       C  0.04445862  0.12648875  0.34515196    -0.24500
C2294       C  0.95117397  0.12725844  0.34443080    -0.29000
C2295       C  0.93978485  0.12247962  0.32477482     0.06500
C2296       C  0.95194112  0.11607590  0.30614276    -0.27700
H2297       H  0.97746744  0.13669732  0.37905015     0.11200
H2298       H  0.01779615  0.13652839  0.37929972     0.12400
H2299       H  0.97816920  0.10389117  0.27297056     0.11400
H2300       H  0.01830097  0.10295315  0.27346583     0.10700
H2301       H  0.05285612  0.10945434  0.29234549     0.16100
H2302       H  0.05337803  0.13139505  0.35976000     0.12000
H2303       H  0.94202756  0.13204347  0.35894895     0.14800
H2304       H  0.94344223  0.11189606  0.29104932     0.14600
C2305       C  0.86303082  0.98667175  0.36239006    -0.18300
C2306       C  0.86303890  0.00969054  0.36273530    -0.20400
C2307       C  0.86804057  0.02169595  0.34369061     0.20200
C2308       C  0.87299202  0.01024930  0.32408373    -0.03400
C2309       C  0.87273247  0.98704494  0.32366591    -0.06400
C2310       C  0.86787452  0.97516559  0.34295427     0.20500
C2311       C  0.87739778  0.97575975  0.30393330     0.18700
C2312       C  0.88247850  0.98764973  0.28488545    -0.17900
C2313       C  0.88297715  0.01055393  0.28536108    -0.20100
C2314       C  0.87822056  0.02196590  0.30484668     0.20100
C2315       C  0.87855915  0.04490817  0.30532073    -0.33100
C2316       C  0.87351736  0.05665501  0.32468586     0.00800
C2317       C  0.86819573  0.04487040  0.34385887    -0.24500
C2318       C  0.86802970  0.95204950  0.34243777    -0.29000
C2319       C  0.87257675  0.94072787  0.32274783     0.06500
C2320       C  0.87706076  0.95278450  0.30356644    -0.27700
H2321       H  0.85920577  0.97785673  0.37735637     0.11200
H2322       H  0.85919913  0.01811135  0.37795197     0.12400
H2323       H  0.88615306  0.97922671  0.26962252     0.11400
H2324       H  0.88702127  0.01936027  0.27044105     0.10700
H2325       H  0.88258907  0.05364233  0.29034398     0.16100
H2326       H  0.86433727  0.05367632  0.35885874     0.12000
H2327       H  0.86445571  0.94288858  0.35726836     0.14800
H2328       H  0.88074185  0.94425235  0.28835107     0.14600
C2329       C  0.75851793  0.11989020  0.26019911    -0.18300
C2330       C  0.74153347  0.12142047  0.24488834    -0.20400
C2331       C  0.74541755  0.11674492  0.22265158     0.20200
C2332       C  0.76650485  0.10985871  0.21585606    -0.03400
C2333       C  0.78370119  0.10836758  0.23131743    -0.06400
C2334       C  0.77967551  0.11376761  0.25348633     0.20500
C2335       C  0.80511808  0.10255502  0.22442981     0.18700
C2336       C  0.80884162  0.09744641  0.20223515    -0.17900
C2337       C  0.79174055  0.09879431  0.18691649    -0.20100
C2338       C  0.77061759  0.10531236  0.19351180     0.20100
C2339       C  0.75374066  0.10808493  0.17807448    -0.33100
C2340       C  0.73285953  0.11564001  0.18463395     0.00800
C2341       C  0.72876027  0.11954047  0.20702982    -0.24500
C2342       C  0.79713768  0.11437711  0.26830795    -0.29000
C2343       C  0.81869765  0.11025659  0.26126526     0.06500
C2344       C  0.82258389  0.10336774  0.23958151    -0.27700
H2345       H  0.75524933  0.12409368  0.27720311     0.11200
H2346       H  0.72545288  0.12669200  0.25037470     0.12400
H2347       H  0.82510829  0.09294556  0.19661567     0.11400
H2348       H  0.79516001  0.09521437  0.16980605     0.10700
H2349       H  0.75714243  0.10513511  0.16083249     0.16100
H2350       H  0.71278119  0.12538636  0.21225536     0.12000
H2351       H  0.79422636  0.11968849  0.28509393     0.14800
H2352       H  0.83927480  0.10045132  0.23412367     0.14600
C2353       C  0.72515789  0.09930752  0.34265443    -0.18300
C2354       C  0.74760802  0.09664372  0.33836417    -0.20400
C2355       C  0.76329624  0.10924385  0.34967797     0.20200
C2356       C  0.75636377  0.12370862  0.36641817    -0.03400
C2357       C  0.73365404  0.12661690  0.37054930    -0.06400
C2358       C  0.71795081  0.11480087  0.35815490     0.20500
C2359       C  0.72667577  0.14262803  0.38578737     0.18700
C2360       C  0.74237531  0.15441782  0.39789578    -0.17900
C2361       C  0.76482719  0.15132575  0.39402895    -0.20100
C2362       C  0.77200869  0.13649722  0.37787864     0.20100
C2363       C  0.79434360  0.13538099  0.37191815    -0.33100
C2364       C  0.80109018  0.12225102  0.35414565     0.00800
C2365       C  0.78556746  0.10876821  0.34352469    -0.24500
C2366       C  0.69550888  0.12010740  0.36005345    -0.29000
C2367       C  0.68878966  0.13753568  0.37362207     0.06500
C2368       C  0.70429045  0.14794502  0.38722988    -0.27700
H2369       H  0.71339446  0.08999414  0.33306933     0.11200
H2370       H  0.75265528  0.08531304  0.32559470     0.12400
H2371       H  0.73728235  0.16669099  0.40974070     0.11400
H2372       H  0.77655581  0.16124170  0.40303018     0.10700
H2373       H  0.80613928  0.14617494  0.37977684     0.16100
H2374       H  0.79066823  0.09886265  0.32961174     0.12000
H2375       H  0.68364907  0.11236499  0.34924074     0.14800
H2376       H  0.69913444  0.16156404  0.39749488     0.14600
C2377       C  0.86157007  0.51101264  0.37999565    -0.18300
C2378       C  0.86150099  0.48796814  0.38018082    -0.20400
C2379       C  0.84192766  0.47619933  0.37683366     0.20200
C2380       C  0.82230983  0.48789345  0.37295016    -0.03400
C2381       C  0.82242164  0.51112343  0.37256398    -0.06400
C2382       C  0.84209931  0.52279888  0.37629386     0.20500
C2383       C  0.80273574  0.52263970  0.36872016     0.18700
C2384       C  0.78321568  0.51096255  0.36505709    -0.17900
C2385       C  0.78306925  0.48805657  0.36560387    -0.20100
C2386       C  0.80245449  0.47640393  0.36974396     0.20100
C2387       C  0.80217680  0.45347667  0.37107266    -0.33100
C2388       C  0.82148332  0.44160540  0.37531508     0.00800
C2389       C  0.84146841  0.45303877  0.37768182    -0.24500
C2390       C  0.84185251  0.54597959  0.37645902    -0.29000
C2391       C  0.82213623  0.55759795  0.37289912     0.06500
C2392       C  0.80275163  0.54563465  0.36884355    -0.27700
H2393       H  0.87687073  0.51962796  0.38286008     0.11200
H2394       H  0.87673964  0.47935049  0.38319325     0.12400
H2395       H  0.76797478  0.51956814  0.36200422     0.11400
H2396       H  0.76771769  0.47944513  0.36298424     0.10700
H2397       H  0.78679377  0.44478720  0.36879290     0.16100
H2398       H  0.85643515  0.44399213  0.38084128     0.12000
H2399       H  0.85691755  0.55493107  0.37957041     0.14800
H2400       H  0.78745951  0.55423396  0.36598262     0.14600
C2401       C  0.69688913  0.40196763  0.31420849    -0.18300
C2402       C  0.68133839  0.40174381  0.29731495    -0.20400
C2403       C  0.68798109  0.39923955  0.27536099     0.20200
C2404       C  0.71053301  0.39847088  0.27018660    -0.03400
C2405       C  0.72621514  0.39877060  0.28720840    -0.06400
C2406       C  0.71930955  0.39980022  0.30938336     0.20500
C2407       C  0.74866680  0.39630993  0.28210058     0.18700
C2408       C  0.75539098  0.39531075  0.26005365    -0.17900
C2409       C  0.73984015  0.39503852  0.24318511    -0.20100
C2410       C  0.71737327  0.39569324  0.24815888     0.20100
C2411       C  0.70167825  0.39188141  0.23177413    -0.33100
C2412       C  0.67931862  0.39064953  0.23723762     0.00800
C2413       C  0.67249398  0.39573605  0.25874637    -0.24500
C2414       C  0.73476908  0.39703920  0.32626918    -0.29000
C2415       C  0.75677944  0.39270057  0.32108765     0.06500
C2416       C  0.76379053  0.39324960  0.29910786    -0.27700
H2417       H  0.69131130  0.40291912  0.33109767     0.11200
H2418       H  0.66406631  0.40250909  0.30150614     0.12400
H2419       H  0.77261701  0.39372611  0.25590390     0.11400
H2420       H  0.74535024  0.39323268  0.22633884     0.10700
H2421       H  0.70694779  0.38848029  0.21508213     0.16100
H2422       H  0.65521526  0.39513089  0.26299158     0.12000
H2423       H  0.72941867  0.39639484  0.34325918     0.14800
H2424       H  0.78084987  0.38991388  0.29523293     0.14600
C2425       C  0.88329982  0.26767503  0.33376174    -0.18300
C2426       C  0.88698096  0.24510867  0.33158942    -0.20400
C2427       C  0.87703173  0.23019689  0.34607144     0.20200
C2428       C  0.86369735  0.23818101  0.36331508    -0.03400
C2429       C  0.86021352  0.26105853  0.36569874    -0.06400
C2430       C  0.86975420  0.27580441  0.35057913     0.20500
C2431       C  0.84633341  0.26907521  0.38250663     0.18700
C2432       C  0.83629547  0.25411174  0.39690471    -0.17900
C2433       C  0.83945297  0.23145632  0.39431630    -0.20100
C2434       C  0.85291640  0.22327619  0.37742948     0.20100
C2435       C  0.85480409  0.20051918  0.37361030    -0.33100
C2436       C  0.86765854  0.19250872  0.35612891     0.00800
C2437       C  0.87912540  0.20744689  0.34279390    -0.24500
C2438       C  0.86473887  0.29827517  0.35186275    -0.29000
C2439       C  0.85064618  0.30636230  0.36828272     0.06500
C2440       C  0.84187552  0.29175398  0.38388215    -0.27700
H2441       H  0.89072116  0.27875729  0.32199535     0.11200
H2442       H  0.89714300  0.23927058  0.31817595     0.12400
H2443       H  0.82551424  0.25990144  0.40983744     0.11400
H2444       H  0.83101024  0.22029763  0.40529239     0.10700
H2445       H  0.84527087  0.18909257  0.38337359     0.16100
H2446       H  0.88830049  0.20135570  0.32876677     0.12000
H2447       H  0.87106296  0.30942963  0.33950980     0.14800
H2448       H  0.83041317  0.29782990  0.39609512     0.14600
C2449       C  0.73664064  0.24255023  0.36239224    -0.18300
C2450       C  0.75247728  0.25909363  0.36205617    -0.20400
C2451       C  0.74805787  0.27957594  0.37158836     0.20200
C2452       C  0.72778341  0.28331306  0.38213030    -0.03400
C2453       C  0.71183929  0.26651785  0.38264436    -0.06400
C2454       C  0.71621852  0.24622041  0.37238756     0.20500
C2455       C  0.69125299  0.27030287  0.39266403     0.18700
C2456       C  0.68709064  0.29072169  0.40252798    -0.17900
C2457       C  0.70288552  0.30744678  0.40190285    -0.20100
C2458       C  0.72316542  0.30402647  0.39146696     0.20100
C2459       C  0.73858727  0.32111314  0.38949346    -0.33100
C2460       C  0.75849696  0.31761886  0.37828523     0.00800
C2461       C  0.76330432  0.29659525  0.37000499    -0.24500
C2462       C  0.69978695  0.23025217  0.37144746    -0.29000
C2463       C  0.67891513  0.23421676  0.38048202     0.06500
C2464       C  0.67492568  0.25396185  0.39173785    -0.27700
H2465       H  0.74021046  0.22702239  0.35447383     0.11200
H2466       H  0.76800320  0.25602852  0.35390925     0.12400
H2467       H  0.67141226  0.29393154  0.41030851     0.11400
H2468       H  0.69907427  0.32319748  0.40922872     0.10700
H2469       H  0.73478021  0.33723558  0.39598118     0.16100
H2470       H  0.77865398  0.29359932  0.36148434     0.12000
H2471       H  0.70294735  0.21496676  0.36285736     0.14800
H2472       H  0.65877093  0.25712443  0.39851752     0.14600
C2473       C  0.00995112  0.36151543  0.13025745    -0.18300
C2474       C  0.98690834  0.36180677  0.12966399    -0.20400
C2475       C  0.97486804  0.34212717  0.12942508     0.20200
C2476       C  0.98626872  0.32198011  0.13017974    -0.03400
C2477       C  0.00947155  0.32169429  0.13097924    -0.06400
C2478       C  0.02144183  0.34154112  0.13072476     0.20500
C2479       C  0.02067299  0.30148378  0.13168801     0.18700
C2480       C  0.00873534  0.28179688  0.13187150    -0.17900
C2481       C  0.98585118  0.28207167  0.13090335    -0.20100
C2482       C  0.97451610  0.30204147  0.12986505     0.20100
C2483       C  0.95162777  0.30231122  0.12832937    -0.33100
C2484       C  0.94001435  0.32221033  0.12734488     0.00800
C2485       C  0.95171851  0.34214417  0.12822384    -0.24500
C2486       C  0.04461628  0.34098173  0.13055128    -0.29000
C2487       C  0.05587767  0.32078120  0.13077730     0.06500
C2488       C  0.04363431  0.30118872  0.13176598    -0.27700
H2489       H  0.01879834  0.37694253  0.13016611     0.11200
H2490       H  0.97850815  0.37744775  0.12915562     0.12400
H2491       H  0.01712247  0.26614633  0.13247626     0.11400
H2492       H  0.97701217  0.26663457  0.13080066     0.10700
H2493       H  0.94278037  0.28686278  0.12803746     0.16100
H2494       H  0.94288851  0.35754892  0.12753285     0.12000
H2495       H  0.05383457  0.35618722  0.12997605     0.14800
H2496       H  0.05198095  0.28549599  0.13202191     0.14600
C2497       C  0.73967788  0.23798050  0.12785693    -0.18300
C2498       C  0.75601229  0.25405566  0.12890177    -0.20400
C2499       C  0.77798484  0.24863558  0.12464223     0.20200
C2500       C  0.78351106  0.22695465  0.11865908    -0.03400
C2501       C  0.76700296  0.21073384  0.11749961    -0.06400
C2502       C  0.74507066  0.21626062  0.12246741     0.20500
C2503       C  0.77256825  0.18884270  0.11221702     0.18700
C2504       C  0.79452467  0.18352596  0.10774600    -0.17900
C2505       C  0.81089402  0.19962759  0.10887875    -0.20100
C2506       C  0.80560092  0.22132811  0.11452962     0.20100
C2507       C  0.82206485  0.23732577  0.11681399    -0.33100
C2508       C  0.81673005  0.25878341  0.12348450     0.00800
C2509       C  0.79458707  0.26437442  0.12693653    -0.24500
C2510       C  0.72909174  0.19978430  0.12297661    -0.29000
C2511       C  0.73469291  0.17788038  0.11855541     0.06500
C2512       C  0.75625162  0.17252560  0.11252758    -0.27700
H2513       H  0.72289184  0.24244417  0.13167520     0.11200
H2514       H  0.75151629  0.27064958  0.13345862     0.12400
H2515       H  0.79910326  0.16681865  0.10375534     0.11400
H2516       H  0.82776924  0.19501971  0.10569020     0.10700
H2517       H  0.83908643  0.23285139  0.11422009     0.16100
H2518       H  0.79028471  0.28089460  0.13197325     0.12000
H2519       H  0.71242731  0.20378068  0.12783362     0.14800
H2520       H  0.76058324  0.15552033  0.10960889     0.14600
C2521       C  0.88209070  0.24147021  0.25963165    -0.18300
C2522       C  0.88362166  0.25757338  0.24339865    -0.20400
C2523       C  0.88838626  0.25172927  0.22160020     0.20200
C2524       C  0.89310541  0.22969588  0.21630386    -0.03400
C2525       C  0.89149639  0.21343989  0.23267869    -0.06400
C2526       C  0.88530067  0.21931570  0.25427193     0.20500
C2527       C  0.89473612  0.19120022  0.22712713     0.18700
C2528       C  0.90070352  0.18554554  0.20555613    -0.17900
C2529       C  0.90226065  0.20166805  0.18929559    -0.20100
C2530       C  0.89786928  0.22369036  0.19435429     0.20100
C2531       C  0.89641756  0.23949176  0.17765826    -0.33100
C2532       C  0.88959217  0.26086618  0.18273688     0.00800
C2533       C  0.88676643  0.26718999  0.20475306    -0.24500
C2534       C  0.88125407  0.20288030  0.26980647    -0.29000
C2535       C  0.88319608  0.18063130  0.26402391     0.06500
C2536       C  0.89077965  0.17494227  0.24291461    -0.27700
H2537       H  0.87756460  0.24625334  0.27618838     0.11200
H2538       H  0.88017184  0.27447660  0.24771079     0.12400
H2539       H  0.90338985  0.16855045  0.20107587     0.11400
H2540       H  0.90604322  0.19678809  0.17258377     0.10700
H2541       H  0.89848602  0.23468667  0.16061246     0.16100
H2542       H  0.88165944  0.28381503  0.20856068     0.12000
H2543       H  0.87570174  0.20740055  0.28613366     0.14800
H2544       H  0.89242650  0.15782082  0.23836531     0.14600
C2545       C  0.89497477  0.34958423  0.27196773    -0.18300
C2546       C  0.89898700  0.34516298  0.24972275    -0.20400
C2547       C  0.88631086  0.35517211  0.23330442     0.20200
C2548       C  0.87033789  0.37082092  0.23926919    -0.03400
C2549       C  0.86618821  0.37518171  0.26175700    -0.06400
C2550       C  0.87815272  0.36403251  0.27821362     0.20500
C2551       C  0.84892373  0.38936731  0.26774360     0.18700
C2552       C  0.83688478  0.40011438  0.25130927    -0.17900
C2553       C  0.84107668  0.39590280  0.22907200    -0.20100
C2554       C  0.85732863  0.38081367  0.22286512     0.20100
C2555       C  0.85958996  0.37422597  0.20078697    -0.33100
C2556       C  0.87417316  0.35731438  0.19510145     0.00800
C2557       C  0.88808798  0.34851129  0.21126324    -0.24500
C2558       C  0.87188774  0.36612782  0.30043672    -0.29000
C2559       C  0.85347426  0.37875894  0.30621705     0.06500
C2560       C  0.84280213  0.39115323  0.28991275    -0.27700
H2561       H  0.90439744  0.34094820  0.28430783     0.11200
H2562       H  0.91141618  0.33321020  0.24539623     0.12400
H2563       H  0.82360470  0.41110310  0.25566047     0.11400
H2564       H  0.83095590  0.40375168  0.21675036     0.10700
H2565       H  0.84848307  0.38063051  0.18845067     0.16100
H2566       H  0.89910103  0.33522402  0.20691553     0.12000
H2567       H  0.87986586  0.35620711  0.31284954     0.14800
H2568       H  0.82847012  0.40075472  0.29430230     0.14600
C2569       C  0.74591944  0.39749625  0.15793144    -0.18300
C2570       C  0.76840340  0.39353911  0.15556633    -0.20400
C2571       C  0.77589670  0.37648013  0.14200967     0.20200
C2572       C  0.76062081  0.36377661  0.13001401    -0.03400
C2573       C  0.73789286  0.36770899  0.13248646    -0.06400
C2574       C  0.73052689  0.38442329  0.14681732     0.20500
C2575       C  0.72255335  0.35396816  0.12180829     0.18700
C2576       C  0.73006715  0.33713135  0.10794552    -0.17900
C2577       C  0.75258638  0.33333432  0.10536676    -0.20100
C2578       C  0.76798255  0.34626184  0.11668140     0.20100
C2579       C  0.79046709  0.34116205  0.11602722    -0.33100
C2580       C  0.80550421  0.35315591  0.12877885     0.00800
C2581       C  0.79824866  0.37103154  0.14132829    -0.24500
C2582       C  0.70798143  0.38671763  0.15103430    -0.29000
C2583       C  0.69282126  0.37220610  0.14152410     0.06500
C2584       C  0.70009162  0.35629657  0.12646054    -0.27700
H2585       H  0.74054687  0.41032138  0.16904434     0.11200
H2586       H  0.77992462  0.40341827  0.16487584     0.12400
H2587       H  0.71850670  0.32644468  0.09962553     0.11400
H2588       H  0.75793932  0.31982103  0.09509695     0.10700
H2589       H  0.79608170  0.32693516  0.10689323     0.16100
H2590       H  0.80986588  0.37984168  0.15158071     0.12000
H2591       H  0.70240559  0.39842102  0.16327068     0.14800
H2592       H  0.68839957  0.34466417  0.11970225     0.14600
C2593       C  0.59212832  0.79301364  0.48875898    -0.18300
C2594       C  0.59143940  0.79224806  0.51173880    -0.20400
C2595       C  0.60344429  0.80737912  0.52436214     0.20200
C2596       C  0.61580811  0.82380856  0.51368843    -0.03400
C2597       C  0.61642003  0.82465804  0.49042779    -0.06400
C2598       C  0.60480733  0.80894216  0.47796664     0.20500
C2599       C  0.62901440  0.84091070  0.47966401     0.18700
C2600       C  0.64067347  0.85626790  0.49233621    -0.17900
C2601       C  0.64014284  0.85536167  0.51536483    -0.20100
C2602       C  0.62786509  0.83913932  0.52623000     0.20100
C2603       C  0.62765565  0.83781246  0.54936110    -0.33100
C2604       C  0.61568645  0.82121898  0.56017591     0.00800
C2605       C  0.60350830  0.80616604  0.54743776    -0.24500
C2606       C  0.60653990  0.80905121  0.45496870    -0.29000
C2607       C  0.61945206  0.82482682  0.44411712     0.06500
C2608       C  0.63017743  0.84111533  0.45649570    -0.27700
H2609       H  0.58297960  0.78092887  0.47941696     0.11200
H2610       H  0.58173864  0.77961293  0.51964629     0.12400
H2611       H  0.65045710  0.86883740  0.48442838     0.11400
H2612       H  0.64950479  0.86728290  0.52469712     0.10700
H2613       H  0.63712090  0.84947828  0.55892619     0.16100
H2614       H  0.59410311  0.79338492  0.55548654     0.12000
H2615       H  0.59802958  0.79663822  0.44541824     0.14800
H2616       H  0.64014130  0.85328166  0.44816545     0.14600
C2617       C  0.60305342  0.69770441  0.68894253    -0.18300
C2618       C  0.60281464  0.68134503  0.70504260    -0.20400
C2619       C  0.60447963  0.68687540  0.72737468     0.20200
C2620       C  0.60546286  0.70920775  0.73358956    -0.03400
C2621       C  0.60563481  0.72573501  0.71732388    -0.06400
C2622       C  0.60490907  0.71989302  0.69488931     0.20500
C2623       C  0.60770144  0.74799250  0.72347727     0.18700
C2624       C  0.60836210  0.75359031  0.74586167    -0.17900
C2625       C  0.60834882  0.73721853  0.76196950    -0.20100
C2626       C  0.60755915  0.71498134  0.75596571     0.20100
C2627       C  0.61014920  0.69842102  0.77175231    -0.33100
C2628       C  0.61028829  0.67621585  0.76547964     0.00800
C2629       C  0.60652402  0.67049026  0.74345871    -0.24500
C2630       C  0.60714744  0.73620549  0.67879143    -0.29000
C2631       C  0.61062422  0.75825740  0.68478365     0.06500
C2632       C  0.61018714  0.76411333  0.70716858    -0.27700
H2633       H  0.60241235  0.69295015  0.67178773     0.11200
H2634       H  0.60202068  0.66431285  0.69997801     0.12400
H2635       H  0.60967249  0.77059878  0.75089265     0.11400
H2636       H  0.60968182  0.74193253  0.77910087     0.10700
H2637       H  0.61313616  0.70277622  0.78878775     0.16100
H2638       H  0.60694204  0.65335931  0.73863833     0.12000
H2639       H  0.60744836  0.73152340  0.66159465     0.14800
H2640       H  0.61261539  0.78109428  0.71191575     0.14600
C2641       C  0.86080876  0.61708538  0.48771124    -0.18300
C2642       C  0.85955043  0.61655437  0.51070886    -0.20400
C2643       C  0.84021311  0.62283601  0.52160777     0.20200
C2644       C  0.82213072  0.63020975  0.50917276    -0.03400
C2645       C  0.82335135  0.63062783  0.48597016    -0.06400
C2646       C  0.84271995  0.62381504  0.47515027     0.20500
C2647       C  0.80496784  0.63729199  0.47360458     0.18700
C2648       C  0.78590604  0.64436047  0.48445147    -0.17900
C2649       C  0.78475980  0.64409565  0.50739845    -0.20100
C2650       C  0.80262033  0.63666500  0.51987582     0.20100
C2651       C  0.80110851  0.63514371  0.54282104    -0.33100
C2652       C  0.81880905  0.62721286  0.55538465     0.00800
C2653       C  0.83847534  0.62146446  0.54464370    -0.24500
C2654       C  0.84338058  0.62322816  0.45201324    -0.29000
C2655       C  0.82468208  0.62876493  0.43971377     0.06500
C2656       C  0.80572024  0.63617031  0.45062323    -0.27700
H2657       H  0.87582277  0.61184957  0.47972995     0.11200
H2658       H  0.87363562  0.61093974  0.51997214     0.12400
H2659       H  0.77173234  0.64973031  0.47517056     0.11400
H2660       H  0.76972864  0.64929843  0.51537862     0.10700
H2661       H  0.78597084  0.63992554  0.55088922     0.16100
H2662       H  0.85224757  0.61546068  0.55414476     0.12000
H2663       H  0.85801905  0.61753767  0.44362771     0.14800
H2664       H  0.79137912  0.64077645  0.44114839     0.14600
C2665       C  0.73375415  0.75662498  0.61948223    -0.18300
C2666       C  0.75082274  0.74140256  0.61852813    -0.20400
C2667       C  0.74648928  0.71947371  0.61303322     0.20200
C2668       C  0.72497881  0.71303609  0.60724878    -0.03400
C2669       C  0.70775145  0.72841000  0.60814911    -0.06400
C2670       C  0.71214980  0.75012306  0.61488342     0.20500
C2671       C  0.68598196  0.72176473  0.60354371     0.18700
C2672       C  0.68186386  0.70001869  0.59714754    -0.17900
C2673       C  0.69897513  0.68475105  0.59627379    -0.20100
C2674       C  0.72045883  0.69098317  0.60182717     0.20100
C2675       C  0.73717818  0.67531119  0.60346761    -0.33100
C2676       C  0.75816557  0.68137237  0.61097315     0.00800
C2677       C  0.76298545  0.70363144  0.61463178    -0.24500
C2678       C  0.69474365  0.76464683  0.61806931    -0.29000
C2679       C  0.67302363  0.75783094  0.61459189     0.06500
C2680       C  0.66866898  0.73668441  0.60657461    -0.27700
H2681       H  0.73733989  0.77331250  0.62450099     0.11200
H2682       H  0.76727778  0.74660438  0.62286719     0.12400
H2683       H  0.66530479  0.69465050  0.59347948     0.11400
H2684       H  0.69527252  0.66789104  0.59198119     0.10700
H2685       H  0.73339703  0.65819386  0.60041450     0.16100
H2686       H  0.77921917  0.70847620  0.62011623     0.12000
H2687       H  0.69796690  0.78105680  0.62421974     0.14800
H2688       H  0.65182391  0.73145780  0.60414596     0.14600
C2689       C  0.68349730  0.59556198  0.70630936    -0.18300
C2690       C  0.69857570  0.59548782  0.68887247    -0.20400
C2691       C  0.71999073  0.60349529  0.69189304     0.20200
C2692       C  0.72644771  0.61088745  0.71297102    -0.03400
C2693       C  0.71129470  0.61089170  0.73052997    -0.06400
C2694       C  0.68956486  0.60363416  0.72708971     0.20500
C2695       C  0.71766690  0.61908670  0.75128222     0.18700
C2696       C  0.73919973  0.62652175  0.75456186    -0.17900
C2697       C  0.75413652  0.62664897  0.73718228    -0.20100
C2698       C  0.74778192  0.61923142  0.71631336     0.20100
C2699       C  0.76211641  0.62101157  0.69853029    -0.33100
C2700       C  0.75553792  0.61472855  0.67733526     0.00800
C2701       C  0.73474558  0.60526527  0.67410954    -0.24500
C2702       C  0.67409761  0.60560397  0.74417370    -0.29000
C2703       C  0.68014728  0.61493091  0.76451299     0.06500
C2704       C  0.70217161  0.62076162  0.76814296    -0.27700
H2705       H  0.66691624  0.58982135  0.70338681     0.11200
H2706       H  0.69330872  0.58968920  0.67287843     0.12400
H2707       H  0.74431524  0.63281078  0.77042216     0.11400
H2708       H  0.77052041  0.63302917  0.73993813     0.10700
H2709       H  0.77822258  0.62823868  0.70097633     0.16100
H2710       H  0.72962396  0.60063770  0.65768286     0.12000
H2711       H  0.65717779  0.60091879  0.74126283     0.14800
H2712       H  0.70709363  0.62769810  0.78380790     0.14600
C2713       C  0.71439891  0.86230078  0.01165981    -0.18300
C2714       C  0.71402032  0.86249432  0.98868678    -0.20400
C2715       C  0.69412474  0.86491961  0.97734506     0.20200
C2716       C  0.67430973  0.86640700  0.98923486    -0.03400
C2717       C  0.67471764  0.86641805  0.01253388    -0.06400
C2718       C  0.69490711  0.86467905  0.02372809     0.20500
C2719       C  0.65505072  0.86876549  0.02458484     0.18700
C2720       C  0.63506441  0.87017548  0.01314298    -0.17900
C2721       C  0.63464038  0.86997803  0.99005317    -0.20100
C2722       C  0.65420371  0.86848896  0.97787251     0.20100
C2723       C  0.65414059  0.86965827  0.95464232    -0.33100
C2724       C  0.67402904  0.86928077  0.94276114     0.00800
C2725       C  0.69384289  0.86645152  0.95435238    -0.24500
C2726       C  0.69540814  0.86594536  0.04675411    -0.29000
C2727       C  0.67604882  0.86926028  0.05901970     0.06500
C2728       C  0.65581723  0.87019252  0.04775825    -0.27700
H2729       H  0.73002890  0.86077506  0.01999923     0.11200
H2730       H  0.72936815  0.86112580  0.97977877     0.12400
H2731       H  0.61974794  0.87179236  0.02205695     0.11400
H2732       H  0.61901009  0.87144586  0.98171645     0.10700
H2733       H  0.63878160  0.87169568  0.94591691     0.16100
H2734       H  0.70923725  0.86569723  0.94541998     0.12000
H2735       H  0.71108617  0.86488773  0.05509568     0.14800
H2736       H  0.64074302  0.87244500  0.05695580     0.14600
C2737       C  0.59455437  0.84903080  0.74662630    -0.18300
C2738       C  0.59812360  0.85207635  0.76919483    -0.20400
C2739       C  0.61669284  0.86350808  0.77674574     0.20200
C2740       C  0.63113062  0.87305112  0.76127298    -0.03400
C2741       C  0.62765936  0.86976282  0.73846365    -0.06400
C2742       C  0.60958211  0.85718811  0.73114415     0.20500
C2743       C  0.64320552  0.87759566  0.72312634     0.18700
C2744       C  0.66115966  0.89000940  0.73056680    -0.17900
C2745       C  0.66447425  0.89344293  0.75308887    -0.20100
C2746       C  0.64995539  0.88443699  0.76859177     0.20100
C2747       C  0.65480887  0.88520308  0.79117799    -0.33100
C2748       C  0.64133756  0.87447495  0.80657589     0.00800
C2749       C  0.62193775  0.86421772  0.79933566    -0.24500
C2750       C  0.60783635  0.85152206  0.70874728    -0.29000
C2751       C  0.62430766  0.85768946  0.69379977     0.06500
C2752       C  0.64147804  0.87140230  0.70091297    -0.27700
H2753       H  0.58053486  0.83943927  0.74132712     0.11200
H2754       H  0.58675885  0.84477254  0.78077796     0.12400
H2755       H  0.67314936  0.89630670  0.71901709     0.11400
H2756       H  0.67894835  0.90232426  0.75841594     0.10700
H2757       H  0.67003842  0.89264433  0.79665979     0.16100
H2758       H  0.61181294  0.85546493  0.81107905     0.12000
H2759       H  0.59485085  0.84058890  0.70335433     0.14800
H2760       H  0.65433900  0.87591356  0.68943249     0.14600
C2761       C  0.65849247  0.72822612  0.89826112    -0.18300
C2762       C  0.66274504  0.75074273  0.90039971    -0.20400
C2763       C  0.65081325  0.76611823  0.88808043     0.20200
C2764       C  0.63352476  0.75882239  0.87449269    -0.03400
C2765       C  0.62941110  0.73605675  0.87212537    -0.06400
C2766       C  0.64236673  0.72063730  0.88360959     0.20500
C2767       C  0.61350189  0.72872459  0.85696692     0.18700
C2768       C  0.60085175  0.74411618  0.84545696    -0.17900
C2769       C  0.60469027  0.76661801  0.84804347    -0.20100
C2770       C  0.62140201  0.77414987  0.86202177     0.20100
C2771       C  0.62721288  0.79651845  0.86254329    -0.33100
C2772       C  0.64548204  0.80358851  0.87471469     0.00800
C2773       C  0.65680782  0.78842184  0.88793251    -0.24500
C2774       C  0.64023527  0.69807024  0.87882151    -0.29000
C2775       C  0.62576416  0.69094854  0.86227319     0.06500
C2776       C  0.61177405  0.70625439  0.85220816    -0.27700
H2777       H  0.66851843  0.71670428  0.90732567     0.11200
H2778       H  0.67593485  0.75607805  0.91108390     0.12400
H2779       H  0.58852285  0.73873110  0.83380279     0.11400
H2780       H  0.59519604  0.77809921  0.83838011     0.10700
H2781       H  0.61875762  0.80808113  0.85201973     0.16100
H2782       H  0.67105901  0.79382426  0.89714700     0.12000
H2783       H  0.65140197  0.68639633  0.88623331     0.14800
H2784       H  0.60085542  0.70081781  0.83921022     0.14600
C2785       C  0.88240818  0.63548639  0.98857624    -0.18300
C2786       C  0.88204361  0.63541767  0.01168745    -0.20400
C2787       C  0.87536672  0.65411161  0.02349973     0.20200
C2788       C  0.86845118  0.67282982  0.01176835    -0.03400
C2789       C  0.86866043  0.67283358  0.98846015    -0.06400
C2790       C  0.87598386  0.65420892  0.97673864     0.20500
C2791       C  0.86200600  0.69172591  0.97692569     0.18700
C2792       C  0.85464826  0.71015865  0.98862816    -0.17900
C2793       C  0.85460616  0.71022159  0.01159332    -0.20100
C2794       C  0.86182603  0.69181364  0.02330489     0.20100
C2795       C  0.86304339  0.69234409  0.04631924    -0.33100
C2796       C  0.87043099  0.67405919  0.05820831     0.00800
C2797       C  0.87600527  0.65471458  0.04673280    -0.24500
C2798       C  0.87714436  0.65487962  0.95350026    -0.29000
C2799       C  0.87115865  0.67403830  0.94190659     0.06500
C2800       C  0.86324314  0.69215999  0.95391221    -0.27700
H2801       H  0.88798720  0.62095566  0.97995963     0.11200
H2802       H  0.88735679  0.62084399  0.02032970     0.12400
H2803       H  0.84931203  0.72473521  0.98000013     0.11400
H2804       H  0.84925730  0.72484163  0.02020915     0.10700
H2805       H  0.85839050  0.70715009  0.05506344     0.16100
H2806       H  0.88166584  0.64052768  0.05580626     0.12000
H2807       H  0.88315425  0.64073318  0.94452599     0.14800
H2808       H  0.85830245  0.70691357  0.94532873     0.14600
C2809       C  0.89298815  0.64899907  0.72719839    -0.18300
C2810       C  0.89789282  0.65237250  0.74948275    -0.20400
C2811       C  0.88441393  0.64347390  0.76598754     0.20200
C2812       C  0.86626950  0.63038653  0.75993866    -0.03400
C2813       C  0.86103469  0.62740657  0.73746608    -0.06400
C2814       C  0.87432044  0.63694681  0.72097324     0.20500
C2815       C  0.84176544  0.61597537  0.73158512     0.18700
C2816       C  0.82842971  0.60685635  0.74801376    -0.17900
C2817       C  0.83383450  0.60942556  0.77018564    -0.20100
C2818       C  0.85249152  0.62144363  0.77634660     0.20100
C2819       C  0.85659945  0.62605233  0.79858325    -0.33100
C2820       C  0.87352365  0.64045552  0.80461558     0.00800
C2821       C  0.88775600  0.64867570  0.78831210    -0.24500
C2822       C  0.86790651  0.63540886  0.69873372    -0.29000
C2823       C  0.84803645  0.62507559  0.69303396     0.06500
C2824       C  0.83543042  0.61493156  0.70949181    -0.27700
H2825       H  0.90337519  0.65648531  0.71483713     0.11200
H2826       H  0.91191975  0.66242705  0.75380581     0.12400
H2827       H  0.81351333  0.59814908  0.74372823     0.11400
H2828       H  0.82297246  0.60265644  0.78255422     0.10700
H2829       H  0.84516429  0.62038091  0.81102070     0.16100
H2830       H  0.90043694  0.66031035  0.79288823     0.12000
H2831       H  0.87735906  0.64374907  0.68615642     0.14800
H2832       H  0.81996187  0.60722407  0.70515819     0.14600
C2833       C  0.73344927  0.64886457  0.89816269    -0.18300
C2834       C  0.75611880  0.65156835  0.90079894    -0.20400
C2835       C  0.77086026  0.64148958  0.88620229     0.20200
C2836       C  0.76269467  0.62773267  0.86936823    -0.03400
C2837       C  0.73981351  0.62475885  0.86689858    -0.06400
C2838       C  0.72511645  0.63586209  0.88102414     0.20500
C2839       C  0.73163576  0.61190133  0.84938080     0.18700
C2840       C  0.74637287  0.60157942  0.83495923    -0.17900
C2841       C  0.76900370  0.60475572  0.83723105    -0.20100
C2842       C  0.77728863  0.61816160  0.85407401     0.20100
C2843       C  0.79970112  0.62341762  0.85495553    -0.33100
C2844       C  0.80770926  0.63787904  0.87104573     0.00800
C2845       C  0.79343446  0.64618292  0.88714498    -0.24500
C2846       C  0.70244977  0.63494430  0.87683592    -0.29000
C2847       C  0.69437551  0.62291475  0.85888720     0.06500
C2848       C  0.70892286  0.61086533  0.84566930    -0.27700
H2849       H  0.72240739  0.65747922  0.90915859     0.11200
H2850       H  0.76209347  0.66220666  0.91376495     0.12400
H2851       H  0.74036066  0.59170304  0.82140871     0.11400
H2852       H  0.77999366  0.59727752  0.82538733     0.10700
H2853       H  0.81071504  0.61743942  0.84227771     0.16100
H2854       H  0.79958342  0.65784139  0.89914258     0.12000
H2855       H  0.69120971  0.64472695  0.88660313     0.14800
H2856       H  0.70266520  0.60217231  0.83140819     0.14600
C2857       C  0.74246471  0.76064460  0.86961741    -0.18300
C2858       C  0.75792042  0.74377911  0.86922036    -0.20400
C2859       C  0.77930351  0.74743600  0.87690289     0.20200
C2860       C  0.78499319  0.76808675  0.88579219    -0.03400
C2861       C  0.76931224  0.78516279  0.88626744    -0.06400
C2862       C  0.74812962  0.78142555  0.87774460     0.20500
C2863       C  0.77505344  0.80615135  0.89440561     0.18700
C2864       C  0.79632304  0.80952765  0.90268165    -0.17900
C2865       C  0.81190431  0.79257730  0.90217123    -0.20100
C2866       C  0.80652816  0.77190455  0.89338902     0.20100
C2867       C  0.82245198  0.75528169  0.89122919    -0.33100
C2868       C  0.81708145  0.73496452  0.88142531     0.00800
C2869       C  0.79526646  0.73103667  0.87497670    -0.24500
C2870       C  0.73321496  0.79873747  0.87653011    -0.29000
C2871       C  0.73902995  0.81992906  0.88349525     0.06500
C2872       C  0.75972498  0.82349477  0.89315207    -0.27700
H2873       H  0.72620315  0.75757272  0.86309230     0.11200
H2874       H  0.75328770  0.72800379  0.86240693     0.12400
H2875       H  0.80107919  0.82543505  0.90907868     0.11400
H2876       H  0.82832418  0.79579722  0.90819917     0.10700
H2877       H  0.83918954  0.75849906  0.89633341     0.16100
H2878       H  0.79084806  0.71547458  0.86752835     0.12000
H2879       H  0.71720007  0.79593477  0.86924643     0.14800
H2880       H  0.76430908  0.83987355  0.89839782     0.14600
C2881       C  0.88660659  0.75237130  0.66770092    -0.18300
C2882       C  0.88361361  0.72986222  0.66446231    -0.20400
C2883       C  0.87183678  0.72209474  0.64622401     0.20200
C2884       C  0.86349950  0.73711957  0.63071615    -0.03400
C2885       C  0.86638293  0.75991539  0.63408325    -0.06400
C2886       C  0.87779605  0.76751211  0.65280636     0.20500
C2887       C  0.85673953  0.77509043  0.61946928     0.18700
C2888       C  0.84508172  0.76725688  0.60115350    -0.17900
C2889       C  0.84235718  0.74465808  0.59772858    -0.20100
C2890       C  0.85115818  0.72943718  0.61261298     0.20100
C2891       C  0.84662840  0.70683625  0.61057303    -0.33100
C2892       C  0.85395685  0.69202102  0.62665218     0.00800
C2893       C  0.86701569  0.69969801  0.64405224    -0.24500
C2894       C  0.87903043  0.79007625  0.65707185    -0.29000
C2895       C  0.86860546  0.80517100  0.64322252     0.06500
C2896       C  0.85781304  0.79770328  0.62421765    -0.27700
H2897       H  0.89526031  0.75796258  0.68222932     0.11200
H2898       H  0.89001844  0.71853706  0.67655680     0.12400
H2899       H  0.83756348  0.77863155  0.58975988     0.11400
H2900       H  0.83279346  0.73910283  0.58378766     0.10700
H2901       H  0.83586291  0.70104847  0.59761803     0.16100
H2902       H  0.87207514  0.68836192  0.65679540     0.12000
H2903       H  0.88668637  0.79585421  0.67210813     0.14800
H2904       H  0.84915053  0.80934621  0.61394611     0.14600
C2905       C  0.87717244  0.73883526  0.75853865    -0.18300
C2906       C  0.87627179  0.75470763  0.74201826    -0.20400
C2907       C  0.88158471  0.77661753  0.74669804     0.20200
C2908       C  0.88921961  0.78234762  0.76785524    -0.03400
C2909       C  0.89024969  0.76627792  0.78453178    -0.06400
C2910       C  0.88350366  0.74461825  0.77996017     0.20500
C2911       C  0.89673874  0.77217104  0.80606503     0.18700
C2912       C  0.90328916  0.79385389  0.81032618    -0.17900
C2913       C  0.90224470  0.80979222  0.79379241    -0.20100
C2914       C  0.89462554  0.80433677  0.77269266     0.20100
C2915       C  0.89114734  0.82062872  0.75675690    -0.33100
C2916       C  0.88200423  0.81521968  0.73617935     0.00800
C2917       C  0.87819970  0.79304235  0.73097650    -0.24500
C2918       C  0.88187560  0.72946698  0.79714284    -0.29000
C2919       C  0.88681316  0.73559837  0.81889021     0.06500
C2920       C  0.89522226  0.75664801  0.82315040    -0.27700
H2921       H  0.87217350  0.72219137  0.75474675     0.11200
H2922       H  0.87062722  0.74999785  0.72579069     0.12400
H2923       H  0.90848566  0.79867453  0.82666320     0.11400
H2924       H  0.90667518  0.82655940  0.79773228     0.10700
H2925       H  0.89440283  0.83763793  0.76084007     0.16100
H2926       H  0.87153735  0.78863399  0.71504580     0.12000
H2927       H  0.87553641  0.71315473  0.79382772     0.14800
H2928       H  0.89890723  0.76142984  0.83991747     0.14600
C2929       C  0.72340712  0.88984647  0.65881356    -0.18300
C2930       C  0.74565672  0.89376845  0.66305336    -0.20400
C2931       C  0.76198934  0.88267345  0.65112398     0.20200
C2932       C  0.75584493  0.86808163  0.63417999    -0.03400
C2933       C  0.73333421  0.86373815  0.63022987    -0.06400
C2934       C  0.71705612  0.87448980  0.64282029     0.20500
C2935       C  0.72719274  0.84756739  0.61477589     0.18700
C2936       C  0.74352198  0.83695157  0.60240052    -0.17900
C2937       C  0.76577975  0.84160771  0.60596531    -0.20100
C2938       C  0.77217249  0.85672062  0.62219992     0.20100
C2939       C  0.79448091  0.85948835  0.62774122    -0.33100
C2940       C  0.80054366  0.87276653  0.64566088     0.00800
C2941       C  0.78424518  0.88478385  0.65683579    -0.24500
C2942       C  0.69487483  0.86852372  0.64037817    -0.29000
C2943       C  0.68888976  0.85123501  0.62632892     0.06500
C2944       C  0.70502487  0.84123600  0.61311192    -0.27700
H2945       H  0.71116231  0.89818700  0.66868229     0.11200
H2946       H  0.75009114  0.90503636  0.67610942     0.12400
H2947       H  0.73910958  0.82455804  0.59040522     0.11400
H2948       H  0.77803482  0.83271416  0.59661118     0.10700
H2949       H  0.80689229  0.84972250  0.61951165     0.16100
H2950       H  0.78881471  0.89471665  0.67091965     0.12000
H2951       H  0.68255874  0.87580172  0.65100549     0.14800
H2952       H  0.70047701  0.82760967  0.60256951     0.14600
C2953       C  0.79566589  0.90065194  0.81491454    -0.18300
C2954       C  0.81230610  0.90043977  0.79900221    -0.20400
C2955       C  0.80738111  0.89572089  0.77695988     0.20200
C2956       C  0.78529377  0.89223874  0.77073614    -0.03400
C2957       C  0.76852778  0.89257366  0.78674524    -0.06400
C2958       C  0.77380673  0.89621498  0.80903647     0.20500
C2959       C  0.74666295  0.88798122  0.78058737     0.18700
C2960       C  0.74155502  0.88414151  0.75844432    -0.17900
C2961       C  0.75815765  0.88364271  0.74262861    -0.20100
C2962       C  0.78007937  0.88710591  0.74872642     0.20100
C2963       C  0.79696429  0.88419879  0.73345824    -0.33100
C2964       C  0.81896783  0.88639117  0.73982873     0.00800
C2965       C  0.82416535  0.89307936  0.76128760    -0.24500
C2966       C  0.75738435  0.89400050  0.82513468    -0.29000
C2967       C  0.73590277  0.88783068  0.81915730     0.06500
C2968       C  0.73049672  0.88591778  0.79678596    -0.27700
H2969       H  0.80000129  0.90359047  0.83193083     0.11200
H2970       H  0.82912848  0.90322636  0.80407009     0.12400
H2971       H  0.72481521  0.88071618  0.75347553     0.11400
H2972       H  0.75393861  0.87984523  0.72574678     0.10700
H2973       H  0.79308902  0.87910465  0.71680878     0.16100
H2974       H  0.84122441  0.89457063  0.76614243     0.12000
H2975       H  0.76167683  0.89560488  0.84234674     0.14800
H2976       H  0.71393273  0.88146018  0.79200662     0.14600
C2977       C  0.13617669  0.61678822  0.48986458    -0.18300
C2978       C  0.13562124  0.61657757  0.51294193    -0.20400
C2979       C  0.15455230  0.62137276  0.52523488     0.20200
C2980       C  0.17418846  0.62660770  0.51400805    -0.03400
C2981       C  0.17469576  0.62701113  0.49070325    -0.06400
C2982       C  0.15564067  0.62192965  0.47854209     0.20500
C2983       C  0.19436544  0.63224820  0.47960143     0.18700
C2984       C  0.21325034  0.63726151  0.49182866    -0.17900
C2985       C  0.21280470  0.63667647  0.51481308    -0.20100
C2986       C  0.19342964  0.63119827  0.52604224     0.20100
C2987       C  0.19308974  0.63000013  0.54907492    -0.33100
C2988       C  0.17369776  0.62467698  0.56050545     0.00800
C2989       C  0.15433235  0.62074328  0.54846851    -0.24500
C2990       C  0.15647439  0.62183150  0.45533978    -0.29000
C2991       C  0.17617221  0.62669251  0.44408211     0.06500
C2992       C  0.19495346  0.63210118  0.45649426    -0.27700
H2993       H  0.12135665  0.61283291  0.48085509     0.11200
H2994       H  0.12039296  0.61247173  0.52117992     0.12400
H2995       H  0.22847543  0.64140492  0.48359594     0.11400
H2996       H  0.22769433  0.64037428  0.52382200     0.10700
H2997       H  0.20801896  0.63331143  0.55820315     0.16100
H2998       H  0.13934350  0.61657906  0.55712596     0.12000
H2999       H  0.14187262  0.61763899  0.44607118     0.14800
H3000       H  0.21020307  0.63599175  0.44816369     0.14600
C3001       C  0.50327525  0.78213648  0.62677669    -0.18300
C3002       C  0.48047443  0.78358587  0.62518091    -0.20400
C3003       C  0.47003737  0.80404700  0.62635678     0.20200
C3004       C  0.48255758  0.82322222  0.62962709    -0.03400
C3005       C  0.50565896  0.82177677  0.63101723    -0.06400
C3006       C  0.51600493  0.80114652  0.62937827     0.20500
C3007       C  0.51840233  0.84096322  0.63356339     0.18700
C3008       C  0.50779303  0.86132219  0.63553581    -0.17900
C3009       C  0.48483672  0.86273040  0.63440086    -0.20100
C3010       C  0.47203743  0.84381707  0.63117144     0.20100
C3011       C  0.44898908  0.84507432  0.62928397    -0.33100
C3012       C  0.43652787  0.82597806  0.62550793     0.00800
C3013       C  0.44728231  0.80558476  0.62418150    -0.24500
C3014       C  0.53892609  0.79987381  0.62973068    -0.29000
C3015       C  0.55187652  0.81896008  0.63118307     0.06500
C3016       C  0.54148005  0.83945889  0.63352207    -0.27700
H3017       H  0.51098644  0.76617064  0.62558292     0.11200
H3018       H  0.47100564  0.76870387  0.62283442     0.12400
H3019       H  0.51727558  0.87621863  0.63768365     0.11400
H3020       H  0.47711033  0.87866991  0.63575466     0.10700
H3021       H  0.44083259  0.86082292  0.63043570     0.16100
H3022       H  0.43786596  0.79068095  0.62166528     0.12000
H3023       H  0.54669526  0.78396816  0.62803114     0.14800
H3024       H  0.55131791  0.85421838  0.63496980     0.14600
C3025       C  0.39423618  0.78970655  0.49027881    -0.18300
C3026       C  0.39296181  0.79033776  0.51319467    -0.20400
C3027       C  0.38203767  0.80756761  0.52387570     0.20200
C3028       C  0.37234438  0.82442491  0.51139379    -0.03400
C3029       C  0.37348831  0.82368595  0.48812980    -0.06400
C3030       C  0.38451768  0.80623841  0.47759855     0.20500
C3031       C  0.36359477  0.84030191  0.47544304     0.18700
C3032       C  0.35261109  0.85750921  0.48625547    -0.17900
C3033       C  0.35163644  0.85834508  0.50933397    -0.20100
C3034       C  0.36150721  0.84192046  0.52214126     0.20100
C3035       C  0.36067688  0.84250161  0.54540713    -0.33100
C3036       C  0.37002516  0.82540214  0.55783213     0.00800
C3037       C  0.38061464  0.80808709  0.54683589    -0.24500
C3038       C  0.38561871  0.80548162  0.45457792    -0.29000
C3039       C  0.37584172  0.82188789  0.44161177     0.06500
C3040       C  0.36483721  0.83932975  0.45224970    -0.27700
H3041       H  0.40277358  0.77620188  0.48245448     0.11200
H3042       H  0.40053217  0.77730364  0.52258721     0.12400
H3043       H  0.34481149  0.87039255  0.47685158     0.11400
H3044       H  0.34311034  0.87184781  0.51716696     0.10700
H3045       H  0.35237993  0.85584102  0.55377040     0.16100
H3046       H  0.38801881  0.79497879  0.55629828     0.12000
H3047       H  0.39412235  0.79195197  0.44673865     0.14800
H3048       H  0.35710085  0.85201434  0.44251607     0.14600
C3049       C  0.31246793  0.70413833  0.60954564    -0.18300
C3050       C  0.29720891  0.68701225  0.60866211    -0.20400
C3051       C  0.27469626  0.69134412  0.61070596     0.20200
C3052       C  0.26746501  0.71326067  0.61315513    -0.03400
C3053       C  0.28286779  0.73051936  0.61418984    -0.06400
C3054       C  0.30546690  0.72585870  0.61258102     0.20500
C3055       C  0.27570749  0.75229129  0.61773174     0.18700
C3056       C  0.25316868  0.75669782  0.61937040    -0.17900
C3057       C  0.23788818  0.73959310  0.61832786    -0.20100
C3058       C  0.24491723  0.71783404  0.61565158     0.20100
C3059       C  0.22993660  0.70046709  0.61670982    -0.33100
C3060       C  0.23717563  0.67864514  0.61539155     0.00800
C3061       C  0.25940026  0.67411071  0.61160873    -0.24500
C3062       C  0.32072719  0.74286588  0.61488285    -0.29000
C3063       C  0.31378238  0.76441683  0.61935626     0.06500
C3064       C  0.29123231  0.76911633  0.62037301    -0.27700
H3065       H  0.32979787  0.70033605  0.60834316     0.11200
H3066       H  0.30304989  0.67032676  0.60685645     0.12400
H3067       H  0.24739137  0.77330654  0.62195760     0.11400
H3068       H  0.22059256  0.74332077  0.62019363     0.10700
H3069       H  0.21272928  0.70381700  0.61988693     0.16100
H3070       H  0.26493911  0.65722039  0.61108085     0.12000
H3071       H  0.33810480  0.73908922  0.61424003     0.14800
H3072       H  0.28580432  0.78571936  0.62374252     0.14600
C3073       C  0.49254482  0.64222617  0.79058387    -0.18300
C3074       C  0.51538710  0.64178848  0.79206972    -0.20400
C3075       C  0.52563373  0.63361666  0.81096421     0.20200
C3076       C  0.51283490  0.62609905  0.82874379    -0.03400
C3077       C  0.48968265  0.62647389  0.82719970    -0.06400
C3078       C  0.47957424  0.63445671  0.80795181     0.20500
C3079       C  0.47668729  0.61860202  0.84470327     0.18700
C3080       C  0.48706897  0.61057809  0.86368339    -0.17900
C3081       C  0.51006842  0.61023461  0.86523567    -0.20100
C3082       C  0.52316390  0.61789395  0.84783081     0.20100
C3083       C  0.54632445  0.61710103  0.84885378    -0.33100
C3084       C  0.55898166  0.62398050  0.83076139     0.00800
C3085       C  0.54848419  0.63242930  0.81209804    -0.24500
C3086       C  0.45667659  0.63428628  0.80617744    -0.29000
C3087       C  0.44347792  0.62624238  0.82333325     0.06500
C3088       C  0.45361737  0.61863661  0.84271990    -0.27700
H3089       H  0.48501240  0.64844404  0.77572782     0.11200
H3090       H  0.52506094  0.64765260  0.77832435     0.12400
H3091       H  0.47739311  0.60442217  0.87729308     0.11400
H3092       H  0.51761297  0.60380408  0.87998986     0.10700
H3093       H  0.55441283  0.61041059  0.86320742     0.16100
H3094       H  0.55824549  0.63786593  0.79820533     0.12000
H3095       H  0.44911504  0.64032576  0.79124727     0.14800
H3096       H  0.44361327  0.61235805  0.85604238     0.14600
C3097       C  0.29063829  0.59481848  0.69036744    -0.18300
C3098       C  0.30803819  0.59458374  0.70536858    -0.20400
C3099       C  0.30556892  0.60394673  0.72630071     0.20200
C3100       C  0.28500002  0.61278616  0.73248556    -0.03400
C3101       C  0.26748689  0.61307350  0.71734642    -0.06400
C3102       C  0.27049116  0.60446310  0.69603212     0.20500
C3103       C  0.24734959  0.62295216  0.72319249     0.18700
C3104       C  0.24454228  0.63154564  0.74441443    -0.17900
C3105       C  0.26187028  0.63123634  0.75942489    -0.20100
C3106       C  0.28225639  0.62239033  0.75339349     0.20100
C3107       C  0.30028274  0.62415104  0.76742604    -0.33100
C3108       C  0.32110389  0.61673845  0.76080740     0.00800
C3109       C  0.32355298  0.60578325  0.74067606    -0.24500
C3110       C  0.25371000  0.60662612  0.68042964    -0.29000
C3111       C  0.23409721  0.61760420  0.68576015     0.06500
C3112       C  0.23075418  0.62502500  0.70741533    -0.27700
H3113       H  0.29315541  0.58803430  0.67409152     0.11200
H3114       H  0.32363132  0.58765032  0.70036007     0.12400
H3115       H  0.22915291  0.63906624  0.74919278     0.11400
H3116       H  0.25954003  0.63853891  0.77551371     0.10700
H3117       H  0.29840607  0.63239790  0.78313533     0.16100
H3118       H  0.33965495  0.60014909  0.73560176     0.12000
H3119       H  0.25639221  0.60072765  0.66382748     0.14800
H3120       H  0.21565731  0.63338227  0.71174849     0.14600
C3121       C  0.38240035  0.76022923  0.73912663    -0.18300
C3122       C  0.38309323  0.74426453  0.75554358    -0.20400
C3123       C  0.38683120  0.72220909  0.75010445     0.20200
C3124       C  0.39083948  0.71627467  0.72803006    -0.03400
C3125       C  0.39026538  0.73242711  0.71144413    -0.06400
C3126       C  0.38551662  0.75438900  0.71703831     0.20500
C3127       C  0.39331286  0.72643048  0.68919318     0.18700
C3128       C  0.39761271  0.70443475  0.68387978    -0.17900
C3129       C  0.39811704  0.68840317  0.70033443    -0.20100
C3130       C  0.39436478  0.69408546  0.72240338     0.20100
C3131       C  0.39295250  0.67788913  0.73876420    -0.33100
C3132       C  0.38771456  0.68361204  0.76058532     0.00800
C3133       C  0.38549865  0.70589420  0.76621720    -0.24500
C3134       C  0.38275189  0.76989380  0.70037236    -0.29000
C3135       C  0.38468986  0.76380870  0.67820265     0.06500
C3136       C  0.39078343  0.74230774  0.67264139    -0.27700
H3137       H  0.37883768  0.77705786  0.74364653     0.11200
H3138       H  0.38006606  0.74907363  0.77242959     0.12400
H3139       H  0.39999051  0.69952416  0.66692122     0.11400
H3140       H  0.40088548  0.67145720  0.69572058     0.10700
H3141       H  0.39465253  0.66076525  0.73425077     0.16100
H3142       H  0.38161054  0.71050164  0.78299608     0.12000
H3143       H  0.37798068  0.78653221  0.70455397     0.14800
H3144       H  0.39193969  0.73761625  0.65548066     0.14600
C3145       C  0.00890559  0.87800668  0.63740804    -0.18300
C3146       C  0.98584135  0.87774921  0.63722232    -0.20400
C3147       C  0.97390103  0.87511396  0.65682134     0.20200
C3148       C  0.98550435  0.87285086  0.67679811    -0.03400
C3149       C  0.00875905  0.87333583  0.67702043    -0.06400
C3150       C  0.02056043  0.87575952  0.65720983     0.20500
C3151       C  0.02017279  0.87137290  0.69710745     0.18700
C3152       C  0.00834923  0.86878838  0.71672231    -0.17900
C3153       C  0.98542894  0.86809060  0.71647437    -0.20100
C3154       C  0.97389799  0.87012345  0.69662920     0.20100
C3155       C  0.95094138  0.86959668  0.69642517    -0.33100
C3156       C  0.93898062  0.87203631  0.67673198     0.00800
C3157       C  0.95065817  0.87479462  0.65688942    -0.24500
C3158       C  0.04373881  0.87588574  0.65760702    -0.29000
C3159       C  0.05521567  0.87406409  0.67764729     0.06500
C3160       C  0.04320132  0.87196422  0.69729609    -0.27700
H3161       H  0.01764142  0.87998322  0.62202195     0.11200
H3162       H  0.97733890  0.87955416  0.62170413     0.12400
H3163       H  0.01684109  0.86723443  0.73227842     0.11400
H3164       H  0.97669793  0.86602392  0.73185847     0.10700
H3165       H  0.94236385  0.86756330  0.71190723     0.16100
H3166       H  0.94173355  0.87674669  0.64162262     0.12000
H3167       H  0.05283083  0.87772193  0.64240083     0.14800
H3168       H  0.05182775  0.87046945  0.71280084     0.14600
C3169       C  0.16019470  0.74815925  0.60284139    -0.18300
C3170       C  0.15558897  0.77040383  0.60608761    -0.20400
C3171       C  0.13876327  0.77686551  0.62046032     0.20200
C3172       C  0.12578865  0.76071340  0.63090996    -0.03400
C3173       C  0.13018089  0.73822871  0.62730828    -0.06400
C3174       C  0.14786049  0.73199310  0.61367975     0.20500
C3175       C  0.11791201  0.72205881  0.63856653     0.18700
C3176       C  0.10097331  0.72854532  0.65280299    -0.17900
C3177       C  0.09690624  0.75081209  0.65669438    -0.20100
C3178       C  0.10951641  0.76699179  0.64619425     0.20100
C3179       C  0.10733647  0.78918977  0.65196550    -0.33100
C3180       C  0.12098854  0.80515190  0.64242951     0.00800
C3181       C  0.13589385  0.79907017  0.62592999    -0.24500
C3182       C  0.15390059  0.70984559  0.61240880    -0.29000
C3183       C  0.14248243  0.69382031  0.62448282     0.06500
C3184       C  0.12388841  0.69984975  0.63671039    -0.27700
H3185       H  0.17385684  0.74361540  0.59236900     0.11200
H3186       H  0.16577827  0.78256476  0.59804961     0.12400
H3187       H  0.09144611  0.71639254  0.66162891     0.11400
H3188       H  0.08434692  0.75536902  0.66845877     0.10700
H3189       H  0.09621004  0.79388948  0.66507497     0.16100
H3190       H  0.14687958  0.81132063  0.61912296     0.12000
H3191       H  0.16848013  0.70521301  0.60326917     0.14800
H3192       H  0.11547348  0.68759377  0.64650008     0.14600
C3193       C  0.26178289  0.89896996  0.65057834    -0.18300
C3194       C  0.23899949  0.90185932  0.65191581    -0.20400
C3195       C  0.22465536  0.88660903  0.64222433     0.20200
C3196       C  0.23340204  0.86869676  0.63035323    -0.03400
C3197       C  0.25638576  0.86593263  0.62877162    -0.06400
C3198       C  0.27066454  0.88090313  0.63932338     0.20500
C3199       C  0.26502548  0.84748189  0.61770864     0.18700
C3200       C  0.25074396  0.83216823  0.60809266    -0.17900
C3201       C  0.22802639  0.83475235  0.60990318    -0.20100
C3202       C  0.21921108  0.85276102  0.62125418     0.20100
C3203       C  0.19657459  0.85419543  0.62511509    -0.33100
C3204       C  0.18791783  0.87127032  0.63797969     0.00800
C3205       C  0.20184954  0.88798654  0.64563221    -0.24500
C3206       C  0.29342822  0.87685307  0.63936310    -0.29000
C3207       C  0.30193800  0.85830276  0.62859456     0.06500
C3208       C  0.28773716  0.84398810  0.61747186    -0.27700
H3209       H  0.27245544  0.91061936  0.65878245     0.11200
H3210       H  0.23258811  0.91563411  0.66117242     0.12400
H3211       H  0.25715011  0.81783399  0.59971532     0.11400
H3212       H  0.21734866  0.82232911  0.60293862     0.10700
H3213       H  0.18584861  0.84103081  0.61970390     0.16100
H3214       H  0.19523315  0.90074620  0.65615626     0.12000
H3215       H  0.30437614  0.88745133  0.64859664     0.14800
H3216       H  0.29431579  0.82926621  0.60989731     0.14600
C3217       C  0.13195430  0.71614319  0.98980110    -0.18300
C3218       C  0.13253370  0.71647439  0.01272930    -0.20400
C3219       C  0.12976575  0.69704046  0.02471089     0.20200
C3220       C  0.12659925  0.67700000  0.01354293    -0.03400
C3221       C  0.12624746  0.67662505  0.99031858    -0.06400
C3222       C  0.12874784  0.69634571  0.97847465     0.20500
C3223       C  0.12322397  0.65661487  0.97897357     0.18700
C3224       C  0.12042457  0.63719785  0.99106283    -0.17900
C3225       C  0.12052951  0.63761221  0.01412368    -0.20100
C3226       C  0.12360002  0.65743023  0.02555935     0.20100
C3227       C  0.12352129  0.65812740  0.04873080    -0.33100
C3228       C  0.12653447  0.67817325  0.05994197     0.00800
C3229       C  0.12986092  0.69744777  0.04768068    -0.24500
C3230       C  0.12782337  0.69602061  0.95550470    -0.29000
C3231       C  0.12480674  0.67623133  0.94400668     0.06500
C3232       C  0.12282048  0.65648940  0.95580468    -0.27700
H3233       H  0.13395339  0.73140146  0.98091602     0.11200
H3234       H  0.13497221  0.73198940  0.02110991     0.12400
H3235       H  0.11800468  0.62168899  0.98267792     0.11400
H3236       H  0.11817958  0.62241261  0.02302021     0.10700
H3237       H  0.12093324  0.64317044  0.05798201     0.16100
H3238       H  0.13218225  0.71301330  0.05601865     0.12000
H3239       H  0.12958762  0.71125412  0.94648845     0.14800
H3240       H  0.12038621  0.64120784  0.94699455     0.14600
C3241       C  0.98855836  0.63547462  0.88634170    -0.18300
C3242       C  0.01159313  0.63622358  0.88682626    -0.20400
C3243       C  0.02290356  0.65544278  0.88092017     0.20200
C3244       C  0.01077902  0.67406565  0.87445546    -0.03400
C3245       C  0.98757938  0.67335658  0.87408169    -0.06400
C3246       C  0.97634880  0.65396044  0.88002199     0.20500
C3247       C  0.97563677  0.69218881  0.86796355     0.18700
C3248       C  0.98682312  0.71136395  0.86193754    -0.17900
C3249       C  0.00971768  0.71201871  0.86218509    -0.20100
C3250       C  0.02180645  0.69352337  0.86851686     0.20100
C3251       C  0.04473872  0.69430737  0.86913788    -0.33100
C3252       C  0.05711733  0.67596306  0.87568989     0.00800
C3253       C  0.04604511  0.65648487  0.88149278    -0.24500
C3254       C  0.95317309  0.65360414  0.87983263    -0.29000
C3255       C  0.94130341  0.67262049  0.87431176     0.06500
C3256       C  0.95269653  0.69170538  0.86826236    -0.27700
H3257       H  0.98028659  0.62045698  0.89104296     0.11200
H3258       H  0.02056775  0.62175742  0.89187185     0.12400
H3259       H  0.97784729  0.72592142  0.85714843     0.11400
H3260       H  0.01798210  0.72706998  0.85755672     0.10700
H3261       H  0.05295646  0.70942506  0.86460395     0.16100
H3262       H  0.05537492  0.64227218  0.88663462     0.12000
H3263       H  0.94441444  0.63888578  0.88463871     0.14800
H3264       H  0.94359205  0.70631846  0.86381473     0.14600
C3265       C  0.15349972  0.60149010  0.74743526    -0.18300
C3266       C  0.15105738  0.60426799  0.77016438    -0.20400
C3267       C  0.13878110  0.62183458  0.77861508     0.20200
C3268       C  0.12840598  0.63647358  0.76396421    -0.03400
C3269       C  0.13110033  0.63382244  0.74100830    -0.06400
C3270       C  0.14384683  0.61631566  0.73270518     0.20500
C3271       C  0.12204552  0.64936286  0.72644483     0.18700
C3272       C  0.10975159  0.66694356  0.73488758    -0.17900
C3273       C  0.10687242  0.66942939  0.75758181    -0.20100
C3274       C  0.11636921  0.65446776  0.77225494     0.20100
C3275       C  0.11519445  0.65793872  0.79503622    -0.33100
C3276       C  0.12633009  0.64401299  0.80958400     0.00800
C3277       C  0.13778414  0.62579510  0.80137392    -0.24500
C3278       C  0.14776170  0.61468327  0.70994653    -0.29000
C3279       C  0.13960493  0.63065761  0.69549999     0.06500
C3280       C  0.12649667  0.64774797  0.70383141    -0.27700
H3281       H  0.16344589  0.58805121  0.74138442     0.11200
H3282       H  0.15918113  0.59292413  0.78115617     0.12400
H3283       H  0.10275435  0.67906070  0.72394661     0.11400
H3284       H  0.09773922  0.68342108  0.76368281     0.10700
H3285       H  0.10708196  0.67246385  0.80139617     0.16100
H3286       H  0.14700281  0.61554580  0.81260345     0.12000
H3287       H  0.15860125  0.60203495  0.70367625     0.14800
H3288       H  0.12079564  0.66046986  0.69279166     0.14600
C3289       C  0.25073400  0.60772069  0.83220658    -0.18300
C3290       C  0.22855501  0.61054756  0.83757880    -0.20400
C3291       C  0.22242198  0.62375013  0.85548859     0.20200
C3292       C  0.23888809  0.63354367  0.86860525    -0.03400
C3293       C  0.26131074  0.63031927  0.86344715    -0.06400
C3294       C  0.26720743  0.61778382  0.84484283     0.20500
C3295       C  0.27775837  0.64069639  0.87614484     0.18700
C3296       C  0.27162877  0.65393912  0.89400547    -0.17900
C3297       C  0.24944240  0.65752428  0.89879987    -0.20100
C3298       C  0.23296126  0.64765699  0.88603369     0.20100
C3299       C  0.21074996  0.65282499  0.88943405    -0.33100
C3300       C  0.19434843  0.64382292  0.87588297     0.00800
C3301       C  0.20020139  0.62860065  0.85953717    -0.24500
C3302       C  0.28934937  0.61661038  0.83849171    -0.29000
C3303       C  0.30571621  0.62745034  0.85071573     0.06500
C3304       C  0.29992614  0.63878557  0.86995148    -0.27700
H3305       H  0.25498426  0.59806989  0.81785189     0.11200
H3306       H  0.21616582  0.60301455  0.82725110     0.12400
H3307       H  0.28399954  0.66213288  0.90383691     0.11400
H3308       H  0.24516978  0.66844504  0.91220121     0.10700
H3309       H  0.20629454  0.66503098  0.90163501     0.16100
H3310       H  0.18766014  0.62228243  0.84856856     0.12000
H3311       H  0.29378698  0.60819911  0.82340523     0.14800
H3312       H  0.31244661  0.64766953  0.87898953     0.14600
C3313       C  0.09432861  0.80826923  0.79538028    -0.18300
C3314       C  0.09450646  0.79174823  0.81133997    -0.20400
C3315       C  0.10303284  0.77091533  0.80644553     0.20200
C3316       C  0.11035892  0.76631725  0.78492393    -0.03400
C3317       C  0.11024907  0.78299023  0.76885274    -0.06400
C3318       C  0.10268066  0.80424956  0.77424991     0.20500
C3319       C  0.11881851  0.77868627  0.74775173     0.18700
C3320       C  0.12616761  0.75752022  0.74243993    -0.17900
C3321       C  0.12615711  0.74098519  0.75831450    -0.20100
C3322       C  0.11890694  0.74541870  0.77975867     0.20100
C3323       C  0.12124243  0.72974189  0.79639331    -0.33100
C3324       C  0.11556363  0.73479281  0.81826070     0.00800
C3325       C  0.10553276  0.75505259  0.82295952    -0.24500
C3326       C  0.10468068  0.82130775  0.75881061    -0.29000
C3327       C  0.11463513  0.81732740  0.73836886     0.06500
C3328       C  0.12095390  0.79586916  0.73270301    -0.27700
H3329       H  0.08830885  0.82440543  0.79978903     0.11200
H3330       H  0.08863498  0.79549144  0.82773347     0.12400
H3331       H  0.13257095  0.75393814  0.72620622     0.11400
H3332       H  0.13255100  0.72495413  0.75403296     0.10700
H3333       H  0.12862652  0.71403296  0.79249169     0.16100
H3334       H  0.10083748  0.75898719  0.83969431     0.12000
H3335       H  0.09985404  0.83786125  0.76319053     0.14800
H3336       H  0.12838786  0.79274655  0.71679414     0.14600
C3337       C  0.35926408  0.86823257  0.99049310    -0.18300
C3338       C  0.35946363  0.86784730  0.01356738    -0.20400
C3339       C  0.33996608  0.87065101  0.02559886     0.20200
C3340       C  0.32004145  0.87362356  0.01415170    -0.03400
C3341       C  0.31981000  0.87379984  0.99087720    -0.06400
C3342       C  0.33953269  0.87125628  0.97893395     0.20500
C3343       C  0.29981924  0.87666780  0.97958934     0.18700
C3344       C  0.28028840  0.87934946  0.99152793    -0.17900
C3345       C  0.28054293  0.87936723  0.01449035    -0.20100
C3346       C  0.30032196  0.87660417  0.02593763     0.20100
C3347       C  0.30068153  0.87701462  0.04896089    -0.33100
C3348       C  0.32045917  0.87435906  0.06064148     0.00800
C3349       C  0.34003876  0.87083766  0.04880158    -0.24500
C3350       C  0.33911750  0.87181724  0.95571854    -0.29000
C3351       C  0.31913585  0.87458215  0.94434036     0.06500
C3352       C  0.29961666  0.87691074  0.95655940    -0.27700
H3353       H  0.37458502  0.86618505  0.98167801     0.11200
H3354       H  0.37493180  0.86553159  0.02201354     0.12400
H3355       H  0.26479723  0.88156380  0.98309020     0.11400
H3356       H  0.26524809  0.88162779  0.02330938     0.10700
H3357       H  0.28542460  0.87947467  0.05781662     0.16100
H3358       H  0.35534918  0.86873068  0.05759798     0.12000
H3359       H  0.35426255  0.86995937  0.94654700     0.14800
H3360       H  0.28412225  0.87918246  0.94812460     0.14600
C3361       C  0.23800635  0.74215723  0.88833026    -0.18300
C3362       C  0.25464187  0.75793175  0.88788517    -0.20400
C3363       C  0.24951870  0.78026067  0.88997910     0.20200
C3364       C  0.22758365  0.78670621  0.89379778    -0.03400
C3365       C  0.21079445  0.77078158  0.89433322    -0.06400
C3366       C  0.21603931  0.74849557  0.89094714     0.20500
C3367       C  0.18866150  0.77728089  0.89687903     0.18700
C3368       C  0.18368374  0.79955380  0.89984484    -0.17900
C3369       C  0.20035364  0.81535611  0.89931708    -0.20100
C3370       C  0.22225864  0.80913208  0.89579423     0.20100
C3371       C  0.23871338  0.82497058  0.89293864    -0.33100
C3372       C  0.26027914  0.81866109  0.88757324     0.00800
C3373       C  0.26573657  0.79628017  0.88702087    -0.24500
C3374       C  0.19914351  0.73313390  0.88881704    -0.29000
C3375       C  0.17713536  0.73972621  0.89002824     0.06500
C3376       C  0.17188634  0.76156277  0.89500029    -0.27700
H3377       H  0.24224392  0.72506576  0.88586974     0.11200
H3378       H  0.27141754  0.75273022  0.88510787     0.12400
H3379       H  0.16682137  0.80482565  0.90185461     0.11400
H3380       H  0.19602062  0.83251296  0.90094526     0.10700
H3381       H  0.23440416  0.84220947  0.89350081     0.16100
H3382       H  0.28239277  0.79131136  0.88319109     0.12000
H3383       H  0.20302800  0.71618814  0.88495786     0.14800
H3384       H  0.15482272  0.76656383  0.89565798     0.14600
C3385       C  0.18865863  0.90415175  0.79121011    -0.18300
C3386       C  0.20414697  0.90479332  0.80819980    -0.20400
C3387       C  0.22540467  0.89657716  0.80491007     0.20200
C3388       C  0.23141286  0.88870940  0.78385855    -0.03400
C3389       C  0.21575880  0.88806362  0.76669729    -0.06400
C3390       C  0.19412663  0.89527170  0.77060700     0.20500
C3391       C  0.22143955  0.87910836  0.74602898     0.18700
C3392       C  0.24307317  0.87208511  0.74232386    -0.17900
C3393       C  0.25855831  0.87267706  0.75931144    -0.20100
C3394       C  0.25266438  0.88031447  0.78029374     0.20100
C3395       C  0.26719593  0.87846720  0.79805503    -0.33100
C3396       C  0.26081594  0.88487350  0.81936832     0.00800
C3397       C  0.24029760  0.89486253  0.82254077    -0.24500
C3398       C  0.17804964  0.89241506  0.75430484    -0.29000
C3399       C  0.18315442  0.88208410  0.73420231     0.06500
C3400       C  0.20514043  0.87627863  0.72988289    -0.27700
H3401       H  0.17215879  0.90993931  0.79442498     0.11200
H3402       H  0.19925549  0.91104183  0.82414839     0.12400
H3403       H  0.24782841  0.86540992  0.72649857     0.11400
H3404       H  0.27491845  0.86643792  0.75625281     0.10700
H3405       H  0.28314725  0.87099101  0.79554985     0.16100
H3406       H  0.23534308  0.89976402  0.83894845     0.12000
H3407       H  0.16127549  0.89721179  0.75777107     0.14800
H3408       H  0.20938573  0.86854823  0.71438928     0.14600
C3409       C  0.39679886  0.74764883  0.83649591    -0.18300
C3410       C  0.39309373  0.77010025  0.83979081    -0.20400
C3411       C  0.37879523  0.77735199  0.85639978     0.20200
C3412       C  0.36892716  0.76182043  0.87049467    -0.03400
C3413       C  0.37262011  0.73908734  0.86711352    -0.06400
C3414       C  0.38625782  0.73198513  0.84972677     0.20500
C3415       C  0.36147665  0.72347621  0.88015040     0.18700
C3416       C  0.34762873  0.73076489  0.89711773    -0.17900
C3417       C  0.34405080  0.75323338  0.90052037    -0.20100
C3418       C  0.35421755  0.76890340  0.88700425     0.20100
C3419       C  0.34881159  0.79133274  0.88872979    -0.33100
C3420       C  0.35764655  0.80670506  0.87394262     0.00800
C3421       C  0.37303522  0.79965403  0.85818724    -0.24500
C3422       C  0.38785661  0.70944285  0.84489257    -0.29000
C3423       C  0.37579849  0.69390145  0.85699562     0.06500
C3424       C  0.36313109  0.70097830  0.87498563    -0.27700
H3425       H  0.40731961  0.74251312  0.82307533     0.11200
H3426       H  0.40085997  0.78177709  0.82885060     0.12400
H3427       H  0.33896953  0.71905105  0.90732384     0.11400
H3428       H  0.33272190  0.75832791  0.91327476     0.10700
H3429       H  0.33638477  0.79656952  0.90037617     0.16100
H3430       H  0.37937517  0.81134930  0.84635637     0.12000
H3431       H  0.39701089  0.70411675  0.83054636     0.14800
H3432       H  0.35325547  0.68913023  0.88387447     0.14600
C3433       C  0.39250916  0.84501592  0.77145959    -0.18300
C3434       C  0.39612831  0.84156412  0.74899867    -0.20400
C3435       C  0.38399836  0.85320571  0.73326294     0.20200
C3436       C  0.36870931  0.86914600  0.74019398    -0.03400
C3437       C  0.36480261  0.87238271  0.76288089    -0.06400
C3438       C  0.37654248  0.85999884  0.77858377     0.20500
C3439       C  0.34808897  0.88684385  0.76977199     0.18700
C3440       C  0.33629263  0.89883662  0.75405537    -0.17900
C3441       C  0.34040204  0.89588687  0.73161097    -0.20100
C3442       C  0.35618866  0.88071759  0.72447414     0.20100
C3443       C  0.35843696  0.87565413  0.70202376    -0.33100
C3444       C  0.37234099  0.85859006  0.69525941     0.00800
C3445       C  0.38565631  0.84799856  0.71084330    -0.24500
C3446       C  0.37097248  0.86161586  0.80095861    -0.29000
C3447       C  0.35332608  0.87480874  0.80762278     0.06500
C3448       C  0.34240056  0.88787491  0.79209401    -0.27700
H3449       H  0.40161056  0.83533017  0.78325226     0.11200
H3450       H  0.40792290  0.82926554  0.74393298     0.12400
H3451       H  0.32341383  0.90999646  0.75909811     0.11400
H3452       H  0.33059559  0.90485038  0.71980309     0.10700
H3453       H  0.34771384  0.88336159  0.69010123     0.16100
H3454       H  0.39606227  0.83452602  0.70564907     0.12000
H3455       H  0.37891166  0.85104859  0.81285995     0.14800
H3456       H  0.32846150  0.89767434  0.79723732     0.14600
C3457       C  0.35807725  0.21220083  0.51278272    -0.18300
C3458       C  0.35722384  0.21202455  0.48986691    -0.20400
C3459       C  0.36170883  0.19272241  0.47812333     0.20200
C3460       C  0.36653695  0.17322389  0.48951382    -0.03400
C3461       C  0.36712255  0.17333217  0.51276709    -0.06400
C3462       C  0.36321385  0.19302519  0.52435232     0.20500
C3463       C  0.37198102  0.15391413  0.52438644     0.18700
C3464       C  0.37605394  0.13452932  0.51250869    -0.17900
C3465       C  0.37572871  0.13449013  0.48941260    -0.20100
C3466       C  0.37117914  0.15380230  0.47768752     0.20100
C3467       C  0.37165297  0.15425062  0.45444592    -0.33100
C3468       C  0.36745354  0.17392768  0.44303271     0.00800
C3469       C  0.36196464  0.19285881  0.45516406    -0.24500
C3470       C  0.36480563  0.19336363  0.54729507    -0.29000
C3471       C  0.36986648  0.17424281  0.55909802     0.06500
C3472       C  0.37302972  0.15440449  0.54758243    -0.27700
H3473       H  0.35490636  0.22741022  0.52146240     0.11200
H3474       H  0.35342484  0.22711340  0.48129997     0.12400
H3475       H  0.37979160  0.11943555  0.52108182     0.11400
H3476       H  0.37924855  0.11937301  0.48071499     0.10700
H3477       H  0.37571733  0.13950942  0.44533529     0.16100
H3478       H  0.35842318  0.20810055  0.44674128     0.12000
H3479       H  0.36206998  0.20863264  0.55605969     0.14800
H3480       H  0.37697866  0.13961135  0.55659229     0.14600
C3481       C  0.21177994  0.48640426  0.64019349    -0.18300
C3482       C  0.21187199  0.50932297  0.64123025    -0.20400
C3483       C  0.19337660  0.52136959  0.63473217     0.20200
C3484       C  0.17457959  0.51019870  0.62707577    -0.03400
C3485       C  0.17441280  0.48694266  0.62620507    -0.06400
C3486       C  0.19312982  0.47506370  0.63279987     0.20500
C3487       C  0.15556576  0.47560148  0.61880911     0.18700
C3488       C  0.13728015  0.48776096  0.61180308    -0.17900
C3489       C  0.13751202  0.51080638  0.61250572    -0.20100
C3490       C  0.15600706  0.52223889  0.62029653     0.20100
C3491       C  0.15637988  0.54542257  0.62125358    -0.33100
C3492       C  0.17519352  0.55671499  0.62876925     0.00800
C3493       C  0.19352030  0.54438750  0.63558645    -0.24500
C3494       C  0.19291300  0.45205418  0.63200067    -0.29000
C3495       C  0.17408436  0.44048424  0.62521962     0.06500
C3496       C  0.15539945  0.45238705  0.61861382    -0.27700
H3497       H  0.22629598  0.47752631  0.64529647     0.11200
H3498       H  0.22647167  0.51764563  0.64708489     0.12400
H3499       H  0.12272744  0.47943749  0.60584486     0.11400
H3500       H  0.12314120  0.51969868  0.60703795     0.10700
H3501       H  0.14222530  0.55464906  0.61575547     0.16100
H3502       H  0.20813481  0.55274231  0.64138886     0.12000
H3503       H  0.20739801  0.44304058  0.63701761     0.14800
H3504       H  0.14097347  0.44361589  0.61296902     0.14600
C3505       C  0.13494166  0.38054385  0.48884345    -0.18300
C3506       C  0.13512186  0.38035644  0.51193818    -0.20400
C3507       C  0.15471516  0.37657863  0.52352752     0.20200
C3508       C  0.17429378  0.37306210  0.51159180    -0.03400
C3509       C  0.17414979  0.37341738  0.48834059    -0.06400
C3510       C  0.15437164  0.37708218  0.47684489     0.20500
C3511       C  0.19389660  0.37023235  0.47662263     0.18700
C3512       C  0.21347519  0.36646719  0.48807425    -0.17900
C3513       C  0.21358570  0.36597304  0.51099506    -0.20100
C3514       C  0.19413435  0.36930018  0.52286609     0.20100
C3515       C  0.19435684  0.36905655  0.54583717    -0.33100
C3516       C  0.17508567  0.37267618  0.55807878     0.00800
C3517       C  0.15520535  0.37637730  0.54675699    -0.24500
C3518       C  0.15452716  0.37744922  0.45363604    -0.29000
C3519       C  0.17435313  0.37476400  0.44197360     0.06500
C3520       C  0.19386329  0.37106696  0.45364994    -0.27700
H3521       H  0.11960155  0.38349563  0.48036485     0.11200
H3522       H  0.11991175  0.38316201  0.52073778     0.12400
H3523       H  0.22874995  0.36396539  0.47928863     0.11400
H3524       H  0.22894996  0.36308567  0.51946110     0.10700
H3525       H  0.20979117  0.36620874  0.55420711     0.16100
H3526       H  0.14024634  0.37928829  0.55595764     0.12000
H3527       H  0.13943768  0.38040081  0.44470125     0.14800
H3528       H  0.20913453  0.36875707  0.44476359     0.14600
C3529       C  0.23922958  0.25452100  0.62531915    -0.18300
C3530       C  0.25597722  0.23889772  0.62522516    -0.20400
C3531       C  0.27702484  0.24445373  0.61768104     0.20200
C3532       C  0.28096887  0.26549526  0.60891724    -0.03400
C3533       C  0.26412404  0.28134377  0.60925179    -0.06400
C3534       C  0.24335090  0.27594443  0.61801593     0.20500
C3535       C  0.26846536  0.30290858  0.60206708     0.18700
C3536       C  0.28917594  0.30802441  0.59329730    -0.17900
C3537       C  0.30583636  0.29223625  0.59276115    -0.20100
C3538       C  0.30211533  0.27113720  0.60115571     0.20100
C3539       C  0.31945383  0.25611996  0.60338352    -0.33100
C3540       C  0.31588782  0.23602126  0.61399056     0.00800
C3541       C  0.29452380  0.22986799  0.62013777    -0.24500
C3542       C  0.22748611  0.29233641  0.62055369    -0.29000
C3543       C  0.23225526  0.31422613  0.61501841     0.06500
C3544       C  0.25246363  0.31922536  0.60493806    -0.27700
H3545       H  0.22329815  0.25008968  0.63190972     0.11200
H3546       H  0.25268324  0.22271351  0.63178801     0.12400
H3547       H  0.29271917  0.32445057  0.58752395     0.11400
H3548       H  0.32189702  0.29680792  0.58660846     0.10700
H3549       H  0.33596539  0.26076840  0.59860233     0.16100
H3550       H  0.29178831  0.21413560  0.62799139     0.12000
H3551       H  0.21187528  0.28823130  0.62808236     0.14800
H3552       H  0.25621167  0.33600463  0.60041093     0.14600
C3553       C  0.36992475  0.51210280  0.78205046    -0.18300
C3554       C  0.36919767  0.48914835  0.78206515    -0.20400
C3555       C  0.37093748  0.47742096  0.80181916     0.20200
C3556       C  0.37327530  0.48899605  0.82179135    -0.03400
C3557       C  0.37376749  0.51227248  0.82180543    -0.06400
C3558       C  0.37223271  0.52381853  0.80180776     0.20500
C3559       C  0.37587566  0.52395978  0.84177290     0.18700
C3560       C  0.37772941  0.51216242  0.86150098    -0.17900
C3561       C  0.37747493  0.48912528  0.86146068    -0.20100
C3562       C  0.37521429  0.47733827  0.84170751     0.20100
C3563       C  0.37496729  0.45416489  0.84149122    -0.33100
C3564       C  0.37266269  0.44242340  0.82159284     0.00800
C3565       C  0.37053836  0.45434606  0.80186535    -0.24500
C3566       C  0.37310229  0.54685812  0.80185103    -0.29000
C3567       C  0.37504655  0.55878042  0.82163935     0.06500
C3568       C  0.37623145  0.54715778  0.84160762    -0.27700
H3569       H  0.36867165  0.52071015  0.76654160     0.11200
H3570       H  0.36739490  0.48054916  0.76656829     0.12400
H3571       H  0.37945679  0.52076292  0.87700151     0.11400
H3572       H  0.37902056  0.48051181  0.87693676     0.10700
H3573       H  0.37665542  0.44528927  0.85680982     0.16100
H3574       H  0.36882242  0.44565718  0.78639989     0.12000
H3575       H  0.37207028  0.55558743  0.78637669     0.14800
H3576       H  0.37793266  0.55613140  0.85690799     0.14600
C3577       C  0.29452590  0.39887967  0.69080662    -0.18300
C3578       C  0.31033946  0.39779096  0.70745365    -0.20400
C3579       C  0.30490925  0.38945220  0.72825845     0.20200
C3580       C  0.28314580  0.38280721  0.73256849    -0.03400
C3581       C  0.26720071  0.38387309  0.71577215    -0.06400
C3582       C  0.27300396  0.39160644  0.69464232     0.20500
C3583       C  0.24572726  0.37625533  0.71984755     0.18700
C3584       C  0.24006351  0.36857000  0.74083067    -0.17900
C3585       C  0.25582608  0.36761401  0.75747964    -0.20100
C3586       C  0.27749696  0.37428908  0.75338660     0.20100
C3587       C  0.29376193  0.37185892  0.76948669    -0.33100
C3588       C  0.31570522  0.37762799  0.76504055     0.00800
C3589       C  0.32101817  0.38692179  0.74454572    -0.24500
C3590       C  0.25753847  0.39077209  0.67747936    -0.29000
C3591       C  0.23666473  0.38177722  0.68122320     0.06500
C3592       C  0.23062802  0.37532987  0.70257299    -0.27700
H3593       H  0.29928770  0.40488863  0.67474725     0.11200
H3594       H  0.32696267  0.40303475  0.70389956     0.12400
H3595       H  0.22358241  0.36277403  0.74420322     0.11400
H3596       H  0.25119162  0.36115132  0.77340278     0.10700
H3597       H  0.28942920  0.36481110  0.78525421     0.16100
H3598       H  0.33785117  0.39144732  0.74094706     0.12000
H3599       H  0.26222168  0.39556408  0.66097711     0.14800
H3600       H  0.21442630  0.36849998  0.70545154     0.14600
C3601       C  0.39838022  0.29569411  0.68903209    -0.18300
C3602       C  0.39904661  0.31183048  0.70542035    -0.20400
C3603       C  0.39492172  0.30638120  0.72743859     0.20200
C3604       C  0.39128941  0.28421472  0.73315269    -0.03400
C3605       C  0.39066606  0.26791720  0.71660565    -0.06400
C3606       C  0.39357110  0.27382079  0.69437004     0.20500
C3607       C  0.38577314  0.24598729  0.72218099     0.18700
C3608       C  0.38298510  0.24027543  0.74435343    -0.17900
C3609       C  0.38346617  0.25643282  0.76072596    -0.20100
C3610       C  0.38685298  0.27852991  0.75518555     0.20100
C3611       C  0.38448205  0.29516483  0.77098892    -0.33100
C3612       C  0.38671998  0.31735673  0.76509506     0.00800
C3613       C  0.39296540  0.32281584  0.74357226    -0.24500
C3614       C  0.39026209  0.25808591  0.67779216    -0.29000
C3615       C  0.38359143  0.23665257  0.68314732     0.06500
C3616       C  0.38239718  0.23048172  0.70543210    -0.27700
H3617       H  0.40082578  0.30047845  0.67206734     0.11200
H3618       H  0.40198663  0.32872202  0.70075019     0.12400
H3619       H  0.37951390  0.22345581  0.74894713     0.11400
H3620       H  0.38035034  0.25175877  0.77761355     0.10700
H3621       H  0.37978906  0.29096539  0.78765815     0.16100
H3622       H  0.39454504  0.33992997  0.73900815     0.12000
H3623       H  0.39148809  0.26292664  0.66070348     0.14800
H3624       H  0.37769303  0.21388222  0.70976560     0.14600
C3625       C  0.12342657  0.36279646  0.01369869    -0.18300
C3626       C  0.12348471  0.36258798  0.99059715    -0.20400
C3627       C  0.12309491  0.34267897  0.97887962     0.20200
C3628       C  0.12250793  0.32279644  0.99071387    -0.03400
C3629       C  0.12225228  0.32301038  0.01404412    -0.06400
C3630       C  0.12286609  0.34310246  0.02565528     0.20500
C3631       C  0.12138388  0.30307975  0.02571642     0.18700
C3632       C  0.12088766  0.28315830  0.01412070    -0.17900
C3633       C  0.12133661  0.28294558  0.99113227    -0.20100
C3634       C  0.12214579  0.30265375  0.97926079     0.20100
C3635       C  0.12248191  0.30248375  0.95615245    -0.33100
C3636       C  0.12290459  0.32217543  0.94399659     0.00800
C3637       C  0.12320769  0.34226838  0.95561671    -0.24500
C3638       C  0.12286353  0.34309189  0.04892323    -0.29000
C3639       C  0.12183925  0.32319563  0.06066375     0.06500
C3640       C  0.12104277  0.30332423  0.04877290    -0.27700
H3641       H  0.12380233  0.37841057  0.02222217     0.11200
H3642       H  0.12389190  0.37805735  0.98187658     0.12400
H3643       H  0.12021102  0.26769613  0.02284709     0.11400
H3644       H  0.12099397  0.26732036  0.98261950     0.10700
H3645       H  0.12215264  0.28686688  0.94760848     0.16100
H3646       H  0.12353036  0.35756805  0.94658599     0.12000
H3647       H  0.12333209  0.35849040  0.05784338     0.14800
H3648       H  0.12038291  0.28785689  0.05751711     0.14600
C3649       C  0.24330753  0.34042492  0.89899175    -0.18300
C3650       C  0.26599246  0.34282495  0.89606910    -0.20400
C3651       C  0.27433857  0.35769764  0.88056710     0.20200
C3652       C  0.25965526  0.37075607  0.86832192    -0.03400
C3653       C  0.23672478  0.36805880  0.87100448    -0.06400
C3654       C  0.22852621  0.35269060  0.88630495     0.20500
C3655       C  0.22205505  0.37978749  0.85746586     0.18700
C3656       C  0.23040197  0.39477717  0.84207648    -0.17900
C3657       C  0.25307647  0.39774440  0.83970712    -0.20100
C3658       C  0.26784715  0.38556242  0.85246672     0.20100
C3659       C  0.29056945  0.38686402  0.84862685    -0.33100
C3660       C  0.30510004  0.37300195  0.85984387     0.00800
C3661       C  0.29696739  0.35876895  0.87608707    -0.24500
C3662       C  0.20578825  0.34886380  0.88766860    -0.29000
C3663       C  0.19123031  0.35968898  0.87348391     0.06500
C3664       C  0.19942112  0.37535460  0.85865065    -0.27700
H3665       H  0.23731579  0.32846790  0.91070409     0.11200
H3666       H  0.27701665  0.33265100  0.90558976     0.12400
H3667       H  0.21939103  0.40387878  0.83152210     0.11400
H3668       H  0.25907198  0.40906880  0.82737511     0.10700
H3669       H  0.29678399  0.39724563  0.83556520     0.16100
H3670       H  0.30814340  0.34761882  0.88427419     0.12000
H3671       H  0.19957764  0.33611860  0.89842609     0.14800
H3672       H  0.18828052  0.38311583  0.84716365     0.14600
C3673       C  0.16212840  0.39764782  0.74980386    -0.18300
C3674       C  0.15754911  0.39467537  0.77215639    -0.20400
C3675       C  0.14060663  0.38055171  0.77883558     0.20200
C3676       C  0.12741191  0.37019218  0.76277068    -0.03400
C3677       C  0.13176110  0.37353892  0.74018078    -0.06400
C3678       C  0.14963278  0.38679157  0.73372054     0.20500
C3679       C  0.11920702  0.36238725  0.72412482     0.18700
C3680       C  0.10206873  0.34851777  0.73079830    -0.17900
C3681       C  0.09806118  0.34486006  0.75314688    -0.20100
C3682       C  0.11093328  0.35523972  0.76923726     0.20100
C3683       C  0.10879206  0.34963721  0.79151840    -0.33100
C3684       C  0.12272038  0.35897094  0.80741934     0.00800
C3685       C  0.13781255  0.37522027  0.80114391    -0.24500
C3686       C  0.15561888  0.38769139  0.71144472    -0.29000
C3687       C  0.14377334  0.37579152  0.69552806     0.06500
C3688       C  0.12502348  0.36399527  0.70181978    -0.27700
H3689       H  0.17587987  0.40791034  0.74511518     0.11200
H3690       H  0.16787259  0.40271092  0.78423927     0.12400
H3691       H  0.09232206  0.33978770  0.71872273     0.11400
H3692       H  0.08533092  0.33335499  0.75783646     0.10700
H3693       H  0.09747286  0.33675681  0.79631774     0.16100
H3694       H  0.14898415  0.38192187  0.81330782     0.12000
H3695       H  0.17034430  0.39647350  0.70661842     0.14800
H3696       H  0.11629165  0.35433710  0.68964861     0.14600
C3697       C  0.36011724  0.12845377  0.00986808    -0.18300
C3698       C  0.35992732  0.12849854  0.98680932    -0.20400
C3699       C  0.34013701  0.12598159  0.97523856     0.20200
C3700       C  0.32037931  0.12327440  0.98708909    -0.03400
C3701       C  0.32054283  0.12344840  0.01027254    -0.06400
C3702       C  0.34049618  0.12606380  0.02178992     0.20500
C3703       C  0.30065400  0.12113010  0.02190400     0.18700
C3704       C  0.28089295  0.11830374  0.01046680    -0.17900
C3705       C  0.28075199  0.11796436  0.98757148    -0.20100
C3706       C  0.30036447  0.12051783  0.97579317     0.20100
C3707       C  0.30019394  0.12040829  0.95288433    -0.33100
C3708       C  0.31969557  0.12317960  0.94083637     0.00800
C3709       C  0.33966505  0.12610427  0.95209241    -0.24500
C3710       C  0.34034945  0.12642122  0.04495744    -0.29000
C3711       C  0.32040418  0.12459259  0.05654449     0.06500
C3712       C  0.30073633  0.12180786  0.04480317    -0.27700
H3713       H  0.37560390  0.13045454  0.01837972     0.11200
H3714       H  0.37527080  0.13051953  0.97802326     0.12400
H3715       H  0.26551670  0.11643331  0.01924122     0.11400
H3716       H  0.26527609  0.11581357  0.97906583     0.10700
H3717       H  0.28467385  0.11837475  0.94440032     0.16100
H3718       H  0.35476090  0.12821712  0.94289086     0.12000
H3719       H  0.35559485  0.12844467  0.05390685     0.14800
H3720       H  0.28531301  0.11999527  0.05353278     0.14600
C3721       C  0.36144654  0.98987163  0.87347808    -0.18300
C3722       C  0.36077081  0.01294926  0.87269803    -0.20400
C3723       C  0.34061913  0.02416631  0.87162121     0.20200
C3724       C  0.32101832  0.01179293  0.87102678    -0.03400
C3725       C  0.32168816  0.98853777  0.87202738    -0.06400
C3726       C  0.34198287  0.97742018  0.87331107     0.20500
C3727       C  0.30195053  0.97645346  0.87193895     0.18700
C3728       C  0.28181810  0.98746971  0.87042087    -0.17900
C3729       C  0.28117155  0.01032932  0.86923648    -0.20100
C3730       C  0.30063557  0.02263808  0.86970758     0.20100
C3731       C  0.29988864  0.04561615  0.86928217    -0.33100
C3732       C  0.31916708  0.05838560  0.87054879     0.00800
C3733       C  0.33960635  0.04742784  0.87148129    -0.24500
C3734       C  0.34233350  0.95417405  0.87456943    -0.29000
C3735       C  0.32253568  0.94207659  0.87491563     0.06500
C3736       C  0.30252436  0.95355335  0.87348649    -0.27700
H3737       H  0.37722910  0.98176725  0.87440582     0.11200
H3738       H  0.37605670  0.02204053  0.87307506     0.12400
H3739       H  0.26651533  0.97838907  0.87024773     0.11400
H3740       H  0.26537841  0.01841461  0.86819576     0.10700
H3741       H  0.28400979  0.05358254  0.86852908     0.16100
H3742       H  0.35462161  0.05693342  0.87237718     0.12000
H3743       H  0.35785961  0.94560047  0.87566984     0.14800
H3744       H  0.28713967  0.94458335  0.87344942     0.14600
C3745       C  0.19654497  0.18889836  0.90211577    -0.18300
C3746       C  0.18155769  0.20623455  0.90123225    -0.20400
C3747       C  0.18865945  0.22752066  0.89604706     0.20200
C3748       C  0.21119810  0.23171718  0.89301481    -0.03400
C3749       C  0.22635364  0.21426158  0.89412613    -0.06400
C3750       C  0.21890022  0.19260282  0.89798409     0.20500
C3751       C  0.24873311  0.21825752  0.88984271     0.18700
C3752       C  0.25600950  0.23976397  0.88593851    -0.17900
C3753       C  0.24096786  0.25703869  0.88474640    -0.20100
C3754       C  0.21844405  0.25306245  0.88751552     0.20100
C3755       C  0.20296148  0.26969367  0.88368586    -0.33100
C3756       C  0.18037535  0.26519420  0.88540852     0.00800
C3757       C  0.17347239  0.24434482  0.89257199    -0.24500
C3758       C  0.23365118  0.17494983  0.89606886    -0.29000
C3759       C  0.25552150  0.17886033  0.88999438     0.06500
C3760       C  0.26314765  0.20051934  0.88789308    -0.27700
H3761       H  0.19053000  0.17246643  0.90524852     0.11200
H3762       H  0.16427774  0.20282616  0.90374889     0.12400
H3763       H  0.27322280  0.24307553  0.88287926     0.11400
H3764       H  0.24686827  0.27334940  0.88083916     0.10700
H3765       H  0.20843426  0.28580644  0.87849795     0.16100
H3766       H  0.15611383  0.24072888  0.89413672     0.12000
H3767       H  0.22776016  0.15821746  0.89743780     0.14800
H3768       H  0.28004566  0.20343685  0.88311092     0.14600
C3769       C  0.39181084  0.23151368  0.85649109    -0.18300
C3770       C  0.39698555  0.25369482  0.85371763    -0.20400
C3771       C  0.38356388  0.27004526  0.86283435     0.20200
C3772       C  0.36529097  0.26401256  0.87575229    -0.03400
C3773       C  0.35988583  0.24157577  0.87830205    -0.06400
C3774       C  0.37303452  0.22526876  0.86828606     0.20500
C3775       C  0.34055484  0.23555226  0.88955579     0.18700
C3776       C  0.32750000  0.25191243  0.89927499    -0.17900
C3777       C  0.33296983  0.27412683  0.89693222    -0.20100
C3778       C  0.35148754  0.28039179  0.88468429     0.20100
C3779       C  0.35536095  0.30258093  0.87955468    -0.33100
C3780       C  0.37235453  0.30837915  0.86503093     0.00800
C3781       C  0.38699826  0.29219015  0.85763782    -0.24500
C3782       C  0.36641356  0.20317094  0.86895064    -0.29000
C3783       C  0.34643488  0.19727283  0.87878677     0.06500
C3784       C  0.33391877  0.21345167  0.88964857    -0.27700
H3785       H  0.40205766  0.21924863  0.84867070     0.11200
H3786       H  0.41106635  0.25807581  0.84376050     0.12400
H3787       H  0.31264202  0.24756644  0.90805208     0.11400
H3788       H  0.32218585  0.28643489  0.90391423     0.10700
H3789       H  0.34368329  0.31497729  0.88474201     0.16100
H3790       H  0.39979868  0.29663090  0.84606434     0.12000
H3791       H  0.37581761  0.19085896  0.86016423     0.14800
H3792       H  0.31840939  0.20896418  0.89714715     0.14600
C3793       C  0.34650354  0.10609458  0.73265275    -0.18300
C3794       C  0.34234742  0.10398578  0.75515219    -0.20400
C3795       C  0.35137629  0.11894164  0.77019710     0.20200
C3796       C  0.36542034  0.13575321  0.76257638    -0.03400
C3797       C  0.36983023  0.13772884  0.73984591    -0.06400
C3798       C  0.35987645  0.12310976  0.72480246     0.20500
C3799       C  0.38294060  0.15519148  0.73206100     0.18700
C3800       C  0.39221081  0.17000296  0.74714834    -0.17900
C3801       C  0.38770664  0.16813968  0.76965508    -0.20100
C3802       C  0.37394416  0.15137435  0.77748481     0.20100
C3803       C  0.36752037  0.15064380  0.79968629    -0.33100
C3804       C  0.35308782  0.13425281  0.80715890     0.00800
C3805       C  0.34558162  0.11812509  0.79251469    -0.24500
C3806       C  0.36208835  0.12673987  0.70214716    -0.29000
C3807       C  0.37404228  0.14477598  0.69435807     0.06500
C3808       C  0.38512523  0.15847622  0.70929912    -0.27700
H3809       H  0.33871549  0.09478242  0.72131766     0.11200
H3810       H  0.33148169  0.09105375  0.76072303     0.12400
H3811       H  0.40229295  0.18350692  0.74146365     0.11400
H3812       H  0.39446517  0.18021607  0.78086623     0.10700
H3813       H  0.37292431  0.16334423  0.81096723     0.16100
H3814       H  0.33395688  0.10589518  0.79821223     0.12000
H3815       H  0.35298454  0.11666177  0.69059972     0.14800
H3816       H  0.39371656  0.17284382  0.70324294     0.14600
C3817       C  0.12832373  0.98862798  0.71625246    -0.18300
C3818       C  0.12798086  0.01153853  0.71561231    -0.20400
C3819       C  0.12521869  0.02257693  0.69559026     0.20200
C3820       C  0.12292295  0.01042638  0.67597354    -0.03400
C3821       C  0.12305633  0.98722103  0.67665415    -0.06400
C3822       C  0.12578268  0.97634078  0.69690463     0.20500
C3823       C  0.12035174  0.97494146  0.65714782     0.18700
C3824       C  0.11773344  0.98605387  0.63711213    -0.17900
C3825       C  0.11782012  0.00906136  0.63640613    -0.20100
C3826       C  0.12037439  0.02144708  0.65573677     0.20100
C3827       C  0.12022062  0.04459563  0.65526704    -0.33100
C3828       C  0.12201167  0.05677340  0.67487587     0.00800
C3829       C  0.12456414  0.04555312  0.69491813    -0.24500
C3830       C  0.12578999  0.95337112  0.69756116    -0.29000
C3831       C  0.12291361  0.94087365  0.67829485     0.06500
C3832       C  0.12022470  0.95183096  0.65808078    -0.27700
H3833       H  0.13044768  0.98050608  0.73193078     0.11200
H3834       H  0.12983348  0.02063999  0.73081306     0.12400
H3835       H  0.11562251  0.97694238  0.62195336     0.11400
H3836       H  0.11577063  0.01717813  0.62072138     0.10700
H3837       H  0.11815983  0.05310681  0.63978621     0.16100
H3838       H  0.12618244  0.05478423  0.71008876     0.12000
H3839       H  0.12782184  0.94522144  0.71324626     0.14800
H3840       H  0.11798600  0.94241573  0.64311795     0.14600
C3841       C  0.09677833  0.24152427  0.64901896    -0.18300
C3842       C  0.09984731  0.26429980  0.64784449    -0.20400
C3843       C  0.11831584  0.27316924  0.63722021     0.20200
C3844       C  0.13351588  0.25883533  0.62712019    -0.03400
C3845       C  0.13063406  0.23580067  0.62867636    -0.06400
C3846       C  0.11228328  0.22710422  0.63990528     0.20500
C3847       C  0.14682251  0.22152676  0.62022548     0.18700
C3848       C  0.16513043  0.23033842  0.60930092    -0.17900
C3849       C  0.16776955  0.25308309  0.60739708    -0.20100
C3850       C  0.15227452  0.26747237  0.61657943     0.20100
C3851       C  0.15586277  0.29026321  0.61648339    -0.33100
C3852       C  0.14134132  0.30459707  0.62728269     0.00800
C3853       C  0.12247304  0.29597113  0.63748520    -0.24500
C3854       C  0.11062664  0.20429109  0.64327819    -0.29000
C3855       C  0.12753416  0.19020795  0.63638695     0.06500
C3856       C  0.14522139  0.19886196  0.62425619    -0.27700
H3857       H  0.08264308  0.23517551  0.65776980     0.11200
H3858       H  0.08798115  0.27498550  0.65567776     0.12400
H3859       H  0.17773280  0.21964080  0.60273261     0.11400
H3860       H  0.18232698  0.25943289  0.59935902     0.10700
H3861       H  0.17080915  0.29678658  0.60930691     0.16100
H3862       H  0.11164892  0.30687264  0.64648223     0.12000
H3863       H  0.09735983  0.19777512  0.65321745     0.14800
H3864       H  0.15854701  0.18810756  0.61938216     0.14600
C3865       C  0.25084694  0.15675506  0.60092958    -0.18300
C3866       C  0.22848413  0.15218324  0.60361384    -0.20400
C3867       C  0.22145505  0.13693834  0.61938003     0.20200
C3868       C  0.23724968  0.12535254  0.63178835    -0.03400
C3869       C  0.25987517  0.12981559  0.62891902    -0.06400
C3870       C  0.26660411  0.14604430  0.61384702     0.20500
C3871       C  0.27561359  0.11918577  0.64222825     0.18700
C3872       C  0.26859992  0.10359949  0.65767527    -0.17900
C3873       C  0.24619783  0.09936023  0.66068169    -0.20100
C3874       C  0.23039956  0.11053554  0.64820204     0.20100
C3875       C  0.20795195  0.10852678  0.65307275    -0.33100
C3876       C  0.19227140  0.12113775  0.64179340     0.00800
C3877       C  0.19899465  0.13443967  0.62421822    -0.24500
C3878       C  0.28874683  0.15237240  0.61305454    -0.29000
C3879       C  0.30430941  0.14263327  0.62699742     0.06500
C3880       C  0.29783944  0.12545901  0.64094019    -0.27700
H3881       H  0.25576942  0.16922745  0.58925624     0.11200
H3882       H  0.21663082  0.16124431  0.59397038     0.12400
H3883       H  0.28039830  0.09529125  0.66804028     0.11400
H3884       H  0.24119748  0.08791259  0.67333368     0.10700
H3885       H  0.20278647  0.09857279  0.66690205     0.16100
H3886       H  0.18699976  0.14461508  0.61592934     0.12000
H3887       H  0.29368962  0.16591790  0.60262056     0.14800
H3888       H  0.30970835  0.11839102  0.65214301     0.14600
C3889       C  0.11339248  0.20040326  0.81358019    -0.18300
C3890       C  0.11413565  0.18466419  0.79681794    -0.20400
C3891       C  0.11482176  0.19106987  0.77467481     0.20200
C3892       C  0.11466371  0.21356840  0.76933608    -0.03400
C3893       C  0.11390785  0.22948010  0.78627784    -0.06400
C3894       C  0.11333305  0.22284667  0.80852359     0.20500
C3895       C  0.11445977  0.25199614  0.78098215     0.18700
C3896       C  0.11516173  0.25839801  0.75883079    -0.17900
C3897       C  0.11582306  0.24263612  0.74205668    -0.20100
C3898       C  0.11584890  0.22017849  0.74712125     0.20100
C3899       C  0.11758418  0.20424782  0.73043441    -0.33100
C3900       C  0.11790707  0.18177836  0.73566977     0.00800
C3901       C  0.11620993  0.17536743  0.75783304    -0.24500
C3902       C  0.11361723  0.23874563  0.82530689    -0.29000
C3903       C  0.11504104  0.26110824  0.82010291     0.06500
C3904       C  0.11519921  0.26765017  0.79794647    -0.27700
H3905       H  0.11314246  0.19501067  0.83053529     0.11200
H3906       H  0.11439920  0.16744865  0.80119314     0.12400
H3907       H  0.11554313  0.27562204  0.75448097     0.11400
H3908       H  0.11665379  0.24802366  0.72511912     0.10700
H3909       H  0.11900755  0.20932127  0.71342598     0.16100
H3910       H  0.11683417  0.15811348  0.76207408     0.12000
H3911       H  0.11413881  0.23371459  0.84238299     0.14800
H3912       H  0.11673317  0.28492492  0.79397770     0.14600
C3913       C  0.19819859  0.10298384  0.81281063    -0.18300
C3914       C  0.18190038  0.10212577  0.79664717    -0.20400
C3915       C  0.18714333  0.10623366  0.77457742     0.20200
C3916       C  0.20916390  0.11063809  0.76865661    -0.03400
C3917       C  0.22554281  0.11157774  0.78493218    -0.06400
C3918       C  0.21997050  0.10803892  0.80714982     0.20500
C3919       C  0.24730916  0.11702418  0.77905872     0.18700
C3920       C  0.25268848  0.12070800  0.75697393    -0.17900
C3921       C  0.23646388  0.11979818  0.74084354    -0.20100
C3922       C  0.21466014  0.11517751  0.74660566     0.20100
C3923       C  0.19808255  0.11623790  0.73087346    -0.33100
C3924       C  0.17610325  0.11299459  0.73687131     0.00800
C3925       C  0.17067308  0.10722363  0.75849213    -0.24500
C3926       C  0.23605710  0.11063595  0.82338266    -0.29000
C3927       C  0.25745945  0.11719887  0.81765863     0.06500
C3928       C  0.26312337  0.11968570  0.79544910    -0.27700
H3929       H  0.19367624  0.10023334  0.82980816     0.11200
H3930       H  0.16510732  0.09875919  0.80147943     0.12400
H3931       H  0.26934179  0.12484706  0.75224702     0.11400
H3932       H  0.24085712  0.12327161  0.72394466     0.10700
H3933       H  0.20208461  0.12081018  0.71411360     0.16100
H3934       H  0.15358646  0.10513435  0.76305890     0.12000
H3935       H  0.23159884  0.10871644  0.84052503     0.14800
H3936       H  0.27965619  0.12455951  0.79095496     0.14600
C3937       C  0.48779151  0.21716062  0.62930482    -0.18300
C3938       C  0.51072448  0.21654532  0.62949152    -0.20400
C3939       C  0.52185904  0.19645536  0.62809191     0.20200
C3940       C  0.50978361  0.17674005  0.62683066    -0.03400
C3941       C  0.48655519  0.17737159  0.62655432    -0.06400
C3942       C  0.47557491  0.19769724  0.62771381     0.20500
C3943       C  0.47435587  0.15773186  0.62492996     0.18700
C3944       C  0.48556314  0.13763010  0.62384922    -0.17900
C3945       C  0.50858733  0.13699600  0.62421402    -0.20100
C3946       C  0.52090368  0.15645580  0.62559026     0.20100
C3947       C  0.54407832  0.15606772  0.62536757    -0.33100
C3948       C  0.55618703  0.17577141  0.62590781     0.00800
C3949       C  0.54485578  0.19582802  0.62755932    -0.24500
C3950       C  0.45258101  0.19828808  0.62718004    -0.29000
C3951       C  0.44016263  0.17884911  0.62544831     0.06500
C3952       C  0.45123081  0.15858034  0.62433846    -0.27700
H3953       H  0.47960117  0.23290051  0.63026576     0.11200
H3954       H  0.51976965  0.23182629  0.63055349     0.12400
H3955       H  0.47651275  0.12236591  0.62263656     0.11400
H3956       H  0.51677286  0.12126027  0.62323772     0.10700
H3957       H  0.55264848  0.14054838  0.62410272     0.16100
H3958       H  0.55400409  0.21108423  0.62830226     0.12000
H3959       H  0.44435323  0.21402551  0.62800460     0.14800
H3960       H  0.44188399  0.14349375  0.62303760     0.14600
C3961       C  0.61572685  0.21256082  0.48713421    -0.18300
C3962       C  0.61581089  0.21265843  0.51004324    -0.20400
C3963       C  0.61915622  0.19315292  0.52171585     0.20200
C3964       C  0.62246193  0.17329819  0.51029921    -0.03400
C3965       C  0.62247176  0.17321583  0.48705312    -0.06400
C3966       C  0.61902685  0.19295582  0.47552345     0.20500
C3967       C  0.62585943  0.15347251  0.47537803     0.18700
C3968       C  0.62920192  0.13397664  0.48721109    -0.17900
C3969       C  0.62909176  0.13404115  0.51031313    -0.20100
C3970       C  0.62570621  0.15362160  0.52208831     0.20100
C3971       C  0.62555838  0.15401123  0.54534623    -0.33100
C3972       C  0.62251617  0.17396194  0.55674412     0.00800
C3973       C  0.61926041  0.19332206  0.54464124    -0.24500
C3974       C  0.61881887  0.19285855  0.45256166    -0.29000
C3975       C  0.62202436  0.17332752  0.44060280     0.06500
C3976       C  0.62570315  0.15363984  0.45215962    -0.27700
H3977       H  0.61306320  0.22784519  0.47848404     0.11200
H3978       H  0.61323826  0.22802407  0.51865082     0.12400
H3979       H  0.63184003  0.11863647  0.47859240     0.11400
H3980       H  0.63166887  0.11875316  0.51897153     0.10700
H3981       H  0.62809043  0.13899283  0.55449243     0.16100
H3982       H  0.61662010  0.20876035  0.55312101     0.12000
H3983       H  0.61610548  0.20818614  0.44398065     0.14800
H3984       H  0.62818503  0.13849487  0.44314432     0.14600
C3985       C  0.85838451  0.51083787  0.61608749    -0.18300
C3986       C  0.85848949  0.48780804  0.61690332    -0.20400
C3987       C  0.83954580  0.47611317  0.62302674     0.20200
C3988       C  0.82032256  0.48789698  0.62839168    -0.03400
C3989       C  0.82014146  0.51113650  0.62733494    -0.06400
C3990       C  0.83929586  0.52271221  0.62123806     0.20500
C3991       C  0.80070162  0.52275023  0.63217621     0.18700
C3992       C  0.78179555  0.51116661  0.63845400    -0.17900
C3993       C  0.78204851  0.48826224  0.63973152    -0.20100
C3994       C  0.80115440  0.47647376  0.63457320     0.20100
C3995       C  0.80121285  0.45345591  0.63512042    -0.33100
C3996       C  0.82007294  0.44135741  0.62930160     0.00800
C3997       C  0.83933445  0.45291260  0.62353835    -0.24500
C3998       C  0.83890623  0.54586954  0.62019330    -0.29000
C3999       C  0.81939451  0.55748098  0.62454034     0.06500
C4000       C  0.80040732  0.54571819  0.63050430    -0.27700
H4001       H  0.87323538  0.51936724  0.61127166     0.11200
H4002       H  0.87341520  0.47912874  0.61266885     0.12400
H4003       H  0.76675462  0.51983022  0.64230770     0.11400
H4004       H  0.76718475  0.47973572  0.64452880     0.10700
H4005       H  0.78627712  0.44492770  0.63971751     0.16100
H4006       H  0.85397518  0.44389117  0.61900470     0.12000
H4007       H  0.85354554  0.55480152  0.61542678     0.14800
H4008       H  0.78535291  0.55453754  0.63402047     0.14600
C4009       C  0.77947141  0.36882748  0.49178038    -0.18300
C4010       C  0.78037972  0.36919365  0.51478360    -0.20400
C4011       C  0.80056953  0.37132087  0.52572074     0.20200
C4012       C  0.82004880  0.37311011  0.51334806    -0.03400
C4013       C  0.81910484  0.37291858  0.49000106    -0.06400
C4014       C  0.79872301  0.37070395  0.47919979     0.20500
C4015       C  0.83851242  0.37501039  0.47750281     0.18700
C4016       C  0.85866984  0.37722870  0.48853086    -0.17900
C4017       C  0.85962244  0.37724321  0.51161501    -0.20100
C4018       C  0.84042682  0.37514464  0.52427864     0.20100
C4019       C  0.84118855  0.37518525  0.54758013    -0.33100
C4020       C  0.82171302  0.37368995  0.56005336     0.00800
C4021       C  0.80152930  0.37176934  0.54880021    -0.24500
C4022       C  0.79788083  0.37053929  0.45604937    -0.29000
C4023       C  0.81712655  0.37273625  0.44326179     0.06500
C4024       C  0.83741587  0.37495511  0.45427345    -0.27700
H4025       H  0.76365619  0.36714714  0.48381719     0.11200
H4026       H  0.76524207  0.36779344  0.52404196     0.12400
H4027       H  0.87377560  0.37892037  0.47927711     0.11400
H4028       H  0.87543135  0.37894237  0.51957449     0.10700
H4029       H  0.85679223  0.37687480  0.55595343     0.16100
H4030       H  0.78638864  0.37048809  0.55809809     0.12000
H4031       H  0.78210020  0.36893663  0.44798523     0.14800
H4032       H  0.85236625  0.37675914  0.44478069     0.14600
C4033       C  0.68778487  0.29224781  0.59737422    -0.18300
C4034       C  0.70349623  0.30902458  0.59760537    -0.20400
C4035       C  0.72496672  0.30484997  0.60476924     0.20200
C4036       C  0.73084756  0.28333367  0.61106721    -0.03400
C4037       C  0.71504310  0.26638429  0.61067403    -0.06400
C4038       C  0.69330133  0.27096894  0.60419167     0.20500
C4039       C  0.72076896  0.24510130  0.61771645     0.18700
C4040       C  0.74234815  0.24076907  0.62445525    -0.17900
C4041       C  0.75794854  0.25758800  0.62503458    -0.20100
C4042       C  0.75222793  0.27896318  0.61876167     0.20100
C4043       C  0.76716191  0.29625191  0.62113659    -0.33100
C4044       C  0.76107066  0.31783625  0.61587670     0.00800
C4045       C  0.74030153  0.32197756  0.60689199    -0.24500
C4046       C  0.67724248  0.25449033  0.60564952    -0.29000
C4047       C  0.68261180  0.23355173  0.61372786     0.06500
C4048       C  0.70459516  0.22879228  0.61894478    -0.27700
H4049       H  0.67117218  0.29603995  0.59233036     0.11200
H4050       H  0.69868444  0.32541406  0.59274219     0.12400
H4051       H  0.74700430  0.22450359  0.62986501     0.11400
H4052       H  0.77434387  0.25399282  0.63088629     0.10700
H4053       H  0.78326300  0.29312099  0.62804775     0.16100
H4054       H  0.73557791  0.33868970  0.60310629     0.12000
H4055       H  0.66036122  0.25833695  0.60159966     0.14800
H4056       H  0.70895004  0.21270026  0.62510457     0.14600
C4057       C  0.62649599  0.50831759  0.86678545    -0.18300
C4058       C  0.62578530  0.48528144  0.86690515    -0.20400
C4059       C  0.62456348  0.47341334  0.84711210     0.20200
C4060       C  0.62434658  0.48497883  0.82702144    -0.03400
C4061       C  0.62532899  0.50816174  0.82689679    -0.06400
C4062       C  0.62617276  0.51997056  0.84686600     0.20500
C4063       C  0.62522058  0.51950551  0.80672581     0.18700
C4064       C  0.62424785  0.50774196  0.78691955    -0.17900
C4065       C  0.62305412  0.48488972  0.78704569    -0.20100
C4066       C  0.62295814  0.47340933  0.80697521     0.20100
C4067       C  0.62136168  0.45055035  0.80709177    -0.33100
C4068       C  0.62143744  0.43878162  0.82691815     0.00800
C4069       C  0.62336479  0.45027660  0.84695042    -0.24500
C4070       C  0.62643852  0.54314846  0.84647895    -0.29000
C4071       C  0.62611890  0.55455682  0.82631613     0.06500
C4072       C  0.62578369  0.54244275  0.80658993    -0.27700
H4073       H  0.62721647  0.51702994  0.88230501     0.11200
H4074       H  0.62599209  0.47675416  0.88250693     0.12400
H4075       H  0.62418787  0.51624415  0.77129848     0.11400
H4076       H  0.62210301  0.47618649  0.77152837     0.10700
H4077       H  0.62027548  0.44183703  0.79156987     0.16100
H4078       H  0.62350743  0.44129445  0.86230437     0.12000
H4079       H  0.62678720  0.55225774  0.86178939     0.14800
H4080       H  0.62549407  0.55089418  0.79093333     0.14600
C4081       C  0.48483445  0.35230901  0.79230210    -0.18300
C4082       C  0.50770289  0.35077699  0.79240247    -0.20400
C4083       C  0.51983097  0.35875235  0.81030401     0.20200
C4084       C  0.50883389  0.36773618  0.82862228    -0.03400
C4085       C  0.48566003  0.36901339  0.82865318    -0.06400
C4086       C  0.47369971  0.36161613  0.81021166     0.20500
C4087       C  0.47450335  0.37807233  0.84688852     0.18700
C4088       C  0.48671480  0.38568993  0.86494082    -0.17900
C4089       C  0.50972828  0.38470904  0.86477026    -0.20100
C4090       C  0.52099231  0.37591573  0.84662076     0.20100
C4091       C  0.54413615  0.37575128  0.84579269    -0.33100
C4092       C  0.55515383  0.36759655  0.82710650     0.00800
C4093       C  0.54278504  0.35854849  0.80978932    -0.24500
C4094       C  0.45083564  0.36390583  0.80983243    -0.29000
C4095       C  0.43956392  0.37295926  0.82783879     0.06500
C4096       C  0.45141593  0.37965671  0.84652533    -0.27700
H4097       H  0.47585928  0.34640799  0.77810078     0.11200
H4098       H  0.51594180  0.34376261  0.77825350     0.12400
H4099       H  0.47847432  0.39271202  0.87908022     0.11400
H4100       H  0.51873099  0.39104929  0.87875990     0.10700
H4101       H  0.55349824  0.38269699  0.85925966     0.16100
H4102       H  0.55104514  0.35195011  0.79543816     0.12000
H4103       H  0.44170266  0.35849442  0.79551117     0.14800
H4104       H  0.44274150  0.38669589  0.86040660     0.14600
C4105       C  0.60020018  0.31261227  0.70267832    -0.18300
C4106       C  0.60015741  0.29698970  0.68576231    -0.20400
C4107       C  0.60577266  0.27510113  0.69009211     0.20200
C4108       C  0.61067692  0.26875623  0.71188289    -0.03400
C4109       C  0.61057963  0.28447060  0.72894419    -0.06400
C4110       C  0.60575708  0.30659247  0.72423834     0.20500
C4111       C  0.61631264  0.27820175  0.75051584     0.18700
C4112       C  0.62123783  0.25620333  0.75502715    -0.17900
C4113       C  0.62151703  0.24068442  0.73811884    -0.20100
C4114       C  0.61673823  0.24692252  0.71647585     0.20100
C4115       C  0.61900195  0.23195311  0.69921321    -0.33100
C4116       C  0.61508947  0.23838245  0.67744276     0.00800
C4117       C  0.60768668  0.25969224  0.67294966    -0.24500
C4118       C  0.60757841  0.32242509  0.74094683    -0.29000
C4119       C  0.61446942  0.31642161  0.76219237     0.06500
C4120       C  0.61807190  0.29417696  0.76698782    -0.27700
H4121       H  0.59639455  0.32951798  0.69879309     0.11200
H4122       H  0.59632407  0.30216055  0.66917944     0.12400
H4123       H  0.62553712  0.25112234  0.77152743     0.11400
H4124       H  0.62604149  0.22392499  0.74187004     0.10700
H4125       H  0.62468822  0.21544590  0.70257445     0.16100
H4126       H  0.60487897  0.26462139  0.65607435     0.12000
H4127       H  0.60476624  0.33954444  0.73709965     0.14800
H4128       H  0.62318945  0.28938476  0.78335210     0.14600
C4129       C  0.69783164  0.39445490  0.68463393    -0.18300
C4130       C  0.68078804  0.39566376  0.70007696    -0.20400
C4131       C  0.68522738  0.39365390  0.72262254     0.20200
C4132       C  0.70722150  0.39128207  0.72966157    -0.03400
C4133       C  0.72435698  0.38983140  0.71409311    -0.06400
C4134       C  0.71959164  0.39106019  0.69145736     0.20500
C4135       C  0.74610986  0.38608560  0.72117838     0.18700
C4136       C  0.75070435  0.38484001  0.74371420    -0.17900
C4137       C  0.73377697  0.38635600  0.75912021    -0.20100
C4138       C  0.71200017  0.38907317  0.75221655     0.20100
C4139       C  0.69483532  0.38808559  0.76739509    -0.33100
C4140       C  0.67292922  0.38879268  0.76040078     0.00800
C4141       C  0.66809207  0.39249208  0.73815011    -0.24500
C4142       C  0.73650690  0.38789203  0.67607355    -0.29000
C4143       C  0.75800705  0.38301193  0.68305437     0.06500
C4144       C  0.76275348  0.38270679  0.70563681    -0.27700
H4145       H  0.69390348  0.39551778  0.66730760     0.11200
H4146       H  0.66406626  0.39755919  0.69434230     0.12400
H4147       H  0.76732205  0.38209930  0.74940880     0.11400
H4148       H  0.73763444  0.38468227  0.77641809     0.10700
H4149       H  0.69843228  0.38502606  0.78458333     0.16100
H4150       H  0.65113368  0.39262239  0.73275831     0.12000
H4151       H  0.73269132  0.38814010  0.65867878     0.14800
H4152       H  0.77928936  0.37914800  0.71114698     0.14600
C4153       C  0.00774756  0.13017570  0.71352546    -0.18300
C4154       C  0.98483044  0.12952451  0.71329503    -0.20400
C4155       C  0.97344778  0.12623761  0.69353162     0.20200
C4156       C  0.98525227  0.12358623  0.67375648    -0.03400
C4157       C  0.00851641  0.12401501  0.67402889    -0.06400
C4158       C  0.01972239  0.12740663  0.69401833     0.20500
C4159       C  0.02052790  0.12100333  0.65439722     0.18700
C4160       C  0.00902380  0.11769219  0.63463837    -0.17900
C4161       C  0.98594675  0.11751294  0.63432636    -0.20100
C4162       C  0.97383154  0.12046359  0.65379585     0.20100
C4163       C  0.95058904  0.12020164  0.65377694    -0.33100
C4164       C  0.93876131  0.12248039  0.67360718     0.00800
C4165       C  0.95045894  0.12548584  0.69332497    -0.24500
C4166       C  0.04271192  0.12787770  0.69429755    -0.29000
C4167       C  0.05502823  0.12478647  0.67492533     0.06500
C4168       C  0.04374070  0.12130613  0.65495567    -0.27700
H4169       H  0.01612393  0.13276698  0.72901856     0.11200
H4170       H  0.97598883  0.13161500  0.72861494     0.12400
H4171       H  0.01788176  0.11529961  0.61937466     0.11400
H4172       H  0.97756768  0.11498824  0.61882999     0.10700
H4173       H  0.94176222  0.11772890  0.63851472     0.16100
H4174       H  0.94157676  0.12742741  0.70865998     0.12000
H4175       H  0.05103044  0.13043497  0.70983640     0.14800
H4176       H  0.05296507  0.11878455  0.63992495     0.14600
C4177       C  0.87007605  0.00900520  0.63659442    -0.18300
C4178       C  0.86987893  0.98600831  0.63639372    -0.20400
C4179       C  0.87012691  0.97415163  0.65615648     0.20200
C4180       C  0.87041947  0.98566218  0.67632539    -0.03400
C4181       C  0.87032275  0.00882869  0.67652764    -0.06400
C4182       C  0.87031476  0.02059591  0.65656231     0.20500
C4183       C  0.87040031  0.02018891  0.69673530     0.18700
C4184       C  0.87065782  0.00843177  0.71652476    -0.17900
C4185       C  0.87103901  0.98553708  0.71632368    -0.20100
C4186       C  0.87097493  0.97404182  0.69633257     0.20100
C4187       C  0.87162507  0.95112015  0.69605697    -0.33100
C4188       C  0.87142826  0.93944103  0.67608993     0.00800
C4189       C  0.87035044  0.95104403  0.65615789    -0.24500
C4190       C  0.87065844  0.04369010  0.65696015    -0.29000
C4191       C  0.87072361  0.05508972  0.67710217     0.06500
C4192       C  0.87042282  0.04311937  0.69687291    -0.27700
H4193       H  0.87004671  0.01773450  0.62110290     0.11200
H4194       H  0.86970222  0.97748757  0.62075368     0.12400
H4195       H  0.87073512  0.01695443  0.73217212     0.11400
H4196       H  0.87142117  0.97681194  0.73181663     0.10700
H4197       H  0.87218450  0.94230873  0.71151348     0.16100
H4198       H  0.87023831  0.94213433  0.64072419     0.12000
H4199       H  0.87084036  0.05275193  0.64165323     0.14800
H4200       H  0.87055961  0.05165226  0.71252544     0.14600
C4201       C  0.72859571  0.09987434  0.65485999    -0.18300
C4202       C  0.75126387  0.09671882  0.65731417    -0.20400
C4203       C  0.76630588  0.10968725  0.64557206     0.20200
C4204       C  0.75835026  0.12519436  0.63032061    -0.03400
C4205       C  0.73543661  0.12821533  0.62766352    -0.06400
C4206       C  0.72049605  0.11595630  0.64049949     0.20500
C4207       C  0.72754899  0.14457125  0.61330443     0.18700
C4208       C  0.74255020  0.15714973  0.60113714    -0.17900
C4209       C  0.76517638  0.15432551  0.60393852    -0.20100
C4210       C  0.77324736  0.13877494  0.61885654     0.20100
C4211       C  0.79579852  0.13767990  0.62366154    -0.33100
C4212       C  0.80371964  0.12308781  0.63963126     0.00800
C4213       C  0.78900456  0.10856856  0.64994825    -0.24500
C4214       C  0.69793331  0.12106834  0.63985038    -0.29000
C4215       C  0.69015533  0.13802065  0.62628257     0.06500
C4216       C  0.70494695  0.14914579  0.61251280    -0.27700
H4217       H  0.71740176  0.09021173  0.66475652     0.11200
H4218       H  0.75703537  0.08469910  0.66905183     0.12400
H4219       H  0.73678747  0.16977194  0.59005417     0.11400
H4220       H  0.77637047  0.16483703  0.59495472     0.10700
H4221       H  0.80703767  0.14924850  0.61612144     0.16100
H4222       H  0.79498625  0.09778203  0.66276100     0.12000
H4223       H  0.68663211  0.11288603  0.65092273     0.14800
H4224       H  0.69907013  0.16267661  0.60259087     0.14600
C4225       C  0.89474946  0.26675241  0.65271546    -0.18300
C4226       C  0.89829260  0.24420821  0.65551593    -0.20400
C4227       C  0.88450461  0.22876734  0.64531077     0.20200
C4228       C  0.86766208  0.23610155  0.63124506    -0.03400
C4229       C  0.86395145  0.25888660  0.62858300    -0.06400
C4230       C  0.87727142  0.27431688  0.63975455     0.20500
C4231       C  0.84597487  0.26615718  0.61598362     0.18700
C4232       C  0.83258894  0.25074088  0.60523991    -0.17900
C4233       C  0.83636448  0.22823694  0.60772366    -0.20100
C4234       C  0.85351494  0.22071346  0.62110221     0.20100
C4235       C  0.85568391  0.19823268  0.62587729    -0.33100
C4236       C  0.87132772  0.19105643  0.64118732     0.00800
C4237       C  0.88616700  0.20629497  0.65024482    -0.24500
C4238       C  0.87191235  0.29683999  0.63900589    -0.29000
C4239       C  0.85313367  0.30393661  0.62763326     0.06500
C4240       C  0.84074000  0.28857038  0.61559152    -0.27700
H4241       H  0.90519017  0.27827492  0.66138304     0.11200
H4242       H  0.91136189  0.23885708  0.66629893     0.12400
H4243       H  0.81871716  0.25607841  0.59550284     0.11400
H4244       H  0.82532295  0.21670611  0.59984617     0.10700
H4245       H  0.84380554  0.18662358  0.61942380     0.16100
H4246       H  0.89789594  0.20083286  0.66245288     0.12000
H4247       H  0.88116032  0.30851665  0.64877984     0.14800
H4248       H  0.82604181  0.29394903  0.60713472     0.14600
C4249       C  0.71134005  0.11043456  0.99049526    -0.18300
C4250       C  0.71089382  0.11032664  0.01344456    -0.20400
C4251       C  0.69158808  0.11569461  0.02482178     0.20200
C4252       C  0.67240912  0.12088492  0.01299545    -0.03400
C4253       C  0.67282425  0.12086262  0.98972030    -0.06400
C4254       C  0.69247531  0.11585879  0.97850181     0.20500
C4255       C  0.65370880  0.12603187  0.97770560     0.18700
C4256       C  0.63431314  0.13104093  0.98919785    -0.17900
C4257       C  0.63394437  0.13120730  0.01228711    -0.20100
C4258       C  0.65293594  0.12626555  0.02440179     0.20100
C4259       C  0.65288968  0.12667542  0.04763714    -0.33100
C4260       C  0.67208692  0.12160564  0.05953583     0.00800
C4261       C  0.69127366  0.11605125  0.04782889    -0.24500
C4262       C  0.69307399  0.11656511  0.95549351    -0.29000
C4263       C  0.67426129  0.12193964  0.94326203     0.06500
C4264       C  0.65446983  0.12632149  0.95449487    -0.27700
H4265       H  0.72651778  0.10641978  0.98211433     0.11200
H4266       H  0.72573668  0.10620900  0.02231497     0.12400
H4267       H  0.61944026  0.13502040  0.98032057     0.11400
H4268       H  0.61879563  0.13529559  0.02067473     0.10700
H4269       H  0.63797782  0.13086599  0.05640550     0.16100
H4270       H  0.70620890  0.11210820  0.05664251     0.12000
H4271       H  0.70829742  0.11281324  0.94704391     0.14800
H4272       H  0.63985950  0.13040891  0.94522169     0.14600
C4273       C  0.71184391  0.01196132  0.88126279    -0.18300
C4274       C  0.71230474  0.98911260  0.88161464    -0.20400
C4275       C  0.69295396  0.97701168  0.87864593     0.20200
C4276       C  0.67288855  0.98798253  0.87523686    -0.03400
C4277       C  0.67243074  0.01120134  0.87480700    -0.06400
C4278       C  0.69203197  0.02310309  0.87789151     0.20500
C4279       C  0.65247874  0.02247704  0.87140113     0.18700
C4280       C  0.63313637  0.01020295  0.86841895    -0.17900
C4281       C  0.63358259  0.98712460  0.86889524    -0.20100
C4282       C  0.65338297  0.97577920  0.87235623     0.20100
C4283       C  0.65414885  0.95255478  0.87304656    -0.33100
C4284       C  0.67428044  0.94155049  0.87641074     0.00800
C4285       C  0.69349122  0.95410506  0.87911943    -0.24500
C4286       C  0.69163886  0.04598002  0.87771525    -0.29000
C4287       C  0.67195108  0.05761347  0.87457344     0.06500
C4288       C  0.65232990  0.04571842  0.87122112    -0.27700
H4289       H  0.72702177  0.02093851  0.88367255     0.11200
H4290       H  0.72783005  0.98088742  0.88426854     0.12400
H4291       H  0.61762543  0.01845136  0.86578231     0.11400
H4292       H  0.61839838  0.97814361  0.86659632     0.10700
H4293       H  0.63922482  0.94311690  0.87082749     0.16100
H4294       H  0.70909135  0.94601526  0.88181961     0.12000
H4295       H  0.70693668  0.05477148  0.88012804     0.14800
H4296       H  0.63704549  0.05445975  0.86882610     0.14600
C4297       C  0.60648609  0.17258159  0.74902564    -0.18300
C4298       C  0.61009603  0.16886826  0.77140174    -0.20400
C4299       C  0.62081160  0.14976091  0.77841111     0.20200
C4300       C  0.62734690  0.13390751  0.76275049    -0.03400
C4301       C  0.62349164  0.13755070  0.74015519    -0.06400
C4302       C  0.61341776  0.15719036  0.73330184     0.20500
C4303       C  0.63096507  0.12221827  0.72436594     0.18700
C4304       C  0.64159717  0.10308318  0.73141986    -0.17900
C4305       C  0.64566158  0.09960909  0.75378264    -0.20100
C4306       C  0.63898202  0.11508292  0.76952819     0.20100
C4307       C  0.64492946  0.11281512  0.79170223    -0.33100
C4308       C  0.63904406  0.12888608  0.80717124     0.00800
C4309       C  0.62639054  0.14693017  0.80059884    -0.24500
C4310       C  0.61189548  0.16181057  0.71083156    -0.29000
C4311       C  0.62064473  0.14730742  0.69507678     0.06500
C4312       C  0.62917693  0.12705872  0.70183339    -0.27700
H4313       H  0.59883478  0.18779774  0.74397303     0.11200
H4314       H  0.60512670  0.18126616  0.78317522     0.12400
H4315       H  0.64747883  0.09117677  0.71957328     0.11400
H4316       H  0.65459292  0.08505865  0.75871916     0.10700
H4317       H  0.65529491  0.09925893  0.79673383     0.16100
H4318       H  0.62258920  0.15970542  0.81243725     0.12000
H4319       H  0.60543794  0.17753282  0.70559668     0.14800
H4320       H  0.63634082  0.11610557  0.68974535     0.14600
C4321       C  0.59768593  0.25392320  0.85133345    -0.18300
C4322       C  0.60012175  0.23137686  0.85486874    -0.20400
C4323       C  0.61856137  0.22325518  0.86599227     0.20200
C4324       C  0.63438603  0.23808911  0.87426641    -0.03400
C4325       C  0.63212212  0.26080060  0.87037051    -0.06400
C4326       C  0.61377646  0.26872905  0.85863789     0.20500
C4327       C  0.64886819  0.27539602  0.87704797     0.18700
C4328       C  0.66716968  0.26734905  0.88844342    -0.17900
C4329       C  0.66926752  0.24489932  0.89256138    -0.20100
C4330       C  0.65319585  0.23012267  0.88516799     0.20100
C4331       C  0.65639437  0.20745369  0.88704344    -0.33100
C4332       C  0.64143386  0.19267756  0.87760295     0.00800
C4333       C  0.62226831  0.20056909  0.86762457    -0.24500
C4334       C  0.61254111  0.29109539  0.85326403    -0.29000
C4335       C  0.62976376  0.30533965  0.85884514     0.06500
C4336       C  0.64763581  0.29754625  0.87107747    -0.27700
H4337       H  0.58356281  0.25971537  0.84224102     0.11200
H4338       H  0.58784639  0.22023142  0.84839074     0.12400
H4339       H  0.68014950  0.27835271  0.89366694     0.11400
H4340       H  0.68383674  0.23901007  0.90086248     0.10700
H4341       H  0.67155005  0.20127592  0.89402756     0.16100
H4342       H  0.61117445  0.18912275  0.85966060     0.12000
H4343       H  0.59909766  0.29707924  0.84327135     0.14800
H4344       H  0.66109484  0.30855991  0.87496240     0.14600
C4345       C  0.75352087  0.11992588  0.74243500    -0.18300
C4346       C  0.73789291  0.12010215  0.75928925    -0.20400
C4347       C  0.74409872  0.11573217  0.78105270     0.20200
C4348       C  0.76605921  0.11017871  0.78578126    -0.03400
C4349       C  0.78187299  0.11015840  0.76877326    -0.06400
C4350       C  0.77563007  0.11550374  0.74709634     0.20500
C4351       C  0.80407182  0.10578655  0.77365279     0.18700
C4352       C  0.81009554  0.10061689  0.79529595    -0.17900
C4353       C  0.79441599  0.10055478  0.81213971    -0.20100
C4354       C  0.77242457  0.10569149  0.80765241     0.20100
C4355       C  0.75693667  0.10749615  0.82474123    -0.33100
C4356       C  0.73542538  0.11431604  0.82018145     0.00800
C4357       C  0.72898807  0.11787238  0.79829839    -0.24500
C4358       C  0.79172569  0.11739557  0.73069488    -0.29000
C4359       C  0.81406070  0.11429602  0.73570485     0.06500
C4360       C  0.81999023  0.10770344  0.75705348    -0.27700
H4361       H  0.74842627  0.12390419  0.72585951     0.11200
H4362       H  0.72104562  0.12422218  0.75538767     0.12400
H4363       H  0.82706440  0.09715681  0.79931284     0.11400
H4364       H  0.79960745  0.09705124  0.82878505     0.10700
H4365       H  0.76194701  0.10506905  0.84165170     0.16100
H4366       H  0.71235823  0.12318431  0.79483511     0.12000
H4367       H  0.78694238  0.12227046  0.71425718     0.14800
H4368       H  0.83713248  0.10520148  0.76108335     0.14600
C4369       C  0.85581095  0.35557588  0.01416894    -0.18300
C4370       C  0.85592302  0.35604535  0.99108677    -0.20400
C4371       C  0.86481476  0.33854455  0.97892600     0.20200
C4372       C  0.87357789  0.32037035  0.99029698    -0.03400
C4373       C  0.87319097  0.31975393  0.01355094    -0.06400
C4374       C  0.86439130  0.33750316  0.02559274     0.20500
C4375       C  0.88161946  0.30132441  0.02472547     0.18700
C4376       C  0.89073074  0.28393183  0.01270209    -0.17900
C4377       C  0.89135358  0.28466398  0.98977450    -0.20100
C4378       C  0.88271858  0.30272262  0.97845481     0.20100
C4379       C  0.88304951  0.30327866  0.95547409    -0.33100
C4380       C  0.87425794  0.32115287  0.94376421     0.00800
C4381       C  0.86511659  0.33881133  0.95567926    -0.24500
C4382       C  0.86433870  0.33677877  0.04877300    -0.29000
C4383       C  0.87237121  0.31821729  0.05991636     0.06500
C4384       C  0.88085774  0.30056532  0.04772666    -0.27700
H4385       H  0.84892298  0.36934098  0.02309372     0.11200
H4386       H  0.84910466  0.37015522  0.98274254     0.12400
H4387       H  0.89739144  0.26973683  0.02104081     0.11400
H4388       H  0.89848574  0.27100888  0.98087014     0.10700
H4389       H  0.89013755  0.28952094  0.94668111     0.16100
H4390       H  0.85826430  0.35266410  0.94692663     0.12000
H4391       H  0.85775312  0.35042419  0.05812417     0.14800
H4392       H  0.88732596  0.28635763  0.05623198     0.14600
C4393       C  0.00862658  0.36387755  0.87804523    -0.18300
C4394       C  0.98557220  0.36305499  0.87823661    -0.20400
C4395       C  0.97444097  0.34307364  0.87506791     0.20200
C4396       C  0.98676852  0.32388782  0.87104569    -0.03400
C4397       C  0.00998219  0.32468275  0.87102316    -0.06400
C4398       C  0.02104549  0.34472256  0.87478647     0.20500
C4399       C  0.02209519  0.30526562  0.86770818     0.18700
C4400       C  0.01109537  0.28545905  0.86361155    -0.17900
C4401       C  0.98820687  0.28471285  0.86345228    -0.20100
C4402       C  0.97593658  0.30373037  0.86751575     0.20100
C4403       C  0.95303322  0.30271163  0.86856630    -0.33100
C4404       C  0.94047013  0.32147443  0.87334854     0.00800
C4405       C  0.95130849  0.34176689  0.87624913    -0.24500
C4406       C  0.04423376  0.34506300  0.87569248    -0.29000
C4407       C  0.05629637  0.32548028  0.87331920     0.06500
C4408       C  0.04500233  0.30579755  0.86897905    -0.27700
H4409       H  0.01674786  0.37945698  0.88082437     0.11200
H4410       H  0.97644965  0.37802235  0.88115918     0.12400
H4411       H  0.02020754  0.27045328  0.86084263     0.11400
H4412       H  0.98009144  0.26914590  0.86055350     0.10700
H4413       H  0.94500828  0.28701982  0.86607528     0.16100
H4414       H  0.94182782  0.35640143  0.87971893     0.12000
H4415       H  0.05280069  0.36031795  0.87894724     0.14800
H4416       H  0.05411667  0.29068984  0.86671403     0.14600
C4417       C  0.74143576  0.24174074  0.88598527    -0.18300
C4418       C  0.75839367  0.25722257  0.88651519    -0.20400
C4419       C  0.78026296  0.25049326  0.88910354     0.20200
C4420       C  0.78503993  0.22810621  0.89238203    -0.03400
C4421       C  0.76792999  0.21248520  0.89178450    -0.06400
C4422       C  0.74610738  0.21929741  0.88797621     0.20500
C4423       C  0.77283036  0.18998020  0.89381792     0.18700
C4424       C  0.79459943  0.18335382  0.89732704    -0.17900
C4425       C  0.81156324  0.19882810  0.89788795    -0.20100
C4426       C  0.80703290  0.22118983  0.89499435     0.20100
C4427       C  0.82414294  0.23658629  0.89337849    -0.33100
C4428       C  0.81943141  0.25857793  0.88864813     0.00800
C4429       C  0.79752100  0.26555764  0.88717874    -0.24500
C4430       C  0.72957730  0.20350467  0.88505464    -0.29000
C4431       C  0.73462062  0.18100614  0.88585079     0.06500
C4432       C  0.75609709  0.17442125  0.89113039    -0.27700
H4433       H  0.72475983  0.24726666  0.88327199     0.11200
H4434       H  0.75447875  0.27439658  0.88419205     0.12400
H4435       H  0.79859705  0.16612417  0.89897387     0.11400
H4436       H  0.82830703  0.19323280  0.89994199     0.10700
H4437       H  0.84109044  0.23122851  0.89413440     0.16100
H4438       H  0.79400557  0.28257647  0.88339040     0.12000
H4439       H  0.71301146  0.20871111  0.88121113     0.14800
H4440       H  0.76012045  0.15712008  0.89182253     0.14600
C4441       C  0.89732496  0.18359130  0.79655089    -0.18300
C4442       C  0.89692643  0.19988655  0.81287717    -0.20400
C4443       C  0.89001375  0.22130369  0.80790336     0.20200
C4444       C  0.88386914  0.22638059  0.78613766    -0.03400
C4445       C  0.88421253  0.20998801  0.76972956    -0.06400
C4446       C  0.89077569  0.18839477  0.77495883     0.20500
C4447       C  0.87719409  0.21507393  0.74824666     0.18700
C4448       C  0.87042945  0.23641115  0.74314364    -0.17900
C4449       C  0.87019895  0.25261643  0.75932193    -0.20100
C4450       C  0.87668633  0.24770885  0.78084481     0.20100
C4451       C  0.87536561  0.26367670  0.79725109    -0.33100
C4452       C  0.88062580  0.25871853  0.81915643     0.00800
C4453       C  0.88840094  0.23755973  0.82434204    -0.24500
C4454       C  0.88964797  0.17189910  0.75873255    -0.29000
C4455       C  0.88158429  0.17688726  0.73768778     0.06500
C4456       C  0.87605085  0.19854538  0.73242641    -0.27700
H4457       H  0.90235759  0.16712822  0.80091509     0.11200
H4458       H  0.90169759  0.19564492  0.82947871     0.12400
H4459       H  0.86494296  0.24047480  0.72671466     0.11400
H4460       H  0.86457114  0.26892044  0.75508234     0.10700
H4461       H  0.86938725  0.27986654  0.79300905     0.16100
H4462       H  0.89239303  0.23352172  0.84120884     0.12000
H4463       H  0.89360574  0.15506578  0.76283302     0.14800
H4464       H  0.86982434  0.20230559  0.71616007     0.14600
C4465       C  0.82930215  0.39087276  0.75011739    -0.18300
C4466       C  0.83256765  0.38770732  0.77263026    -0.20400
C4467       C  0.85113242  0.37646798  0.78022975     0.20200
C4468       C  0.86710867  0.36916838  0.76507027    -0.03400
C4469       C  0.86382649  0.37242636  0.74225358    -0.06400
C4470       C  0.84460510  0.38293816  0.73478915     0.20500
C4471       C  0.87898968  0.36385611  0.72689147     0.18700
C4472       C  0.89778586  0.35299311  0.73461530    -0.17900
C4473       C  0.90103004  0.34974822  0.75721542    -0.20100
C4474       C  0.88553893  0.35731057  0.77258354     0.20100
C4475       C  0.88724976  0.35187513  0.79506339    -0.33100
C4476       C  0.87058741  0.35797781  0.80989455     0.00800
C4477       C  0.85309692  0.37095689  0.80250162    -0.24500
C4478       C  0.84024855  0.38402450  0.71216039    -0.29000
C4479       C  0.85464789  0.37456215  0.69677454     0.06500
C4480       C  0.87429422  0.36498767  0.70418688    -0.27700
H4481       H  0.81443204  0.39890823  0.74465502     0.11200
H4482       H  0.82014192  0.39336745  0.78406674     0.12400
H4483       H  0.90964704  0.34633760  0.72312328     0.11400
H4484       H  0.91529099  0.34065509  0.76262084     0.10700
H4485       H  0.90043134  0.34133929  0.80063066     0.16100
H4486       H  0.84003264  0.37523195  0.81386254     0.12000
H4487       H  0.82475943  0.39073423  0.70654423     0.14800
H4488       H  0.88504819  0.35699882  0.69244314     0.14600
C4489       C  0.74898170  0.33553726  0.89688751    -0.18300
C4490       C  0.72677108  0.33989558  0.89312642    -0.20400
C4491       C  0.72050476  0.35631197  0.87828629     0.20200
C4492       C  0.73679736  0.36925879  0.86800180    -0.03400
C4493       C  0.75925275  0.36512331  0.87212589    -0.06400
C4494       C  0.76530235  0.34771798  0.88610063     0.20500
C4495       C  0.77560895  0.37733111  0.86104928     0.18700
C4496       C  0.76929445  0.39415109  0.84665721    -0.17900
C4497       C  0.74705549  0.39798361  0.84227401    -0.20100
C4498       C  0.73072605  0.38523434  0.85240455     0.20100
C4499       C  0.70862970  0.38703875  0.84606509    -0.33100
C4500       C  0.69254263  0.37340229  0.85546960     0.00800
C4501       C  0.69839437  0.35885117  0.87230346    -0.24500
C4502       C  0.78744479  0.34176150  0.88780561    -0.29000
C4503       C  0.80367915  0.35301532  0.87588015     0.06500
C4504       C  0.79783449  0.37140103  0.86329378    -0.27700
H4505       H  0.75339299  0.32214442  0.90769094     0.11200
H4506       H  0.71450145  0.32979072  0.90111971     0.12400
H4507       H  0.78157783  0.40372895  0.83805604     0.11400
H4508       H  0.74266055  0.41041820  0.83037687     0.10700
H4509       H  0.70410587  0.39805643  0.83285907     0.16100
H4510       H  0.68605660  0.34798846  0.87915827     0.12000
H4511       H  0.79195105  0.32737448  0.89723523     0.14800
H4512       H  0.81028087  0.37972391  0.85364898     0.14600
loop_ 
_geom_bond_atom_site_label_1 
_geom_bond_atom_site_label_2 
_geom_bond_distance 
_geom_bond_site_symmetry_2 
_ccdc_geom_bond_type 
O1           C16   1.262       .  A
O1           Al9   1.929       .  S
C2           O12   1.261       .  A
C2            O3   1.259       .  A
C2         C4428   1.467       .  S
O3           Al5   1.896       .  S
O4            C6   1.256       .  A
O4           Al5   1.869       .  S
Al5          O13   1.884       .  S
Al5          O15   1.898       .  S
Al5          O14   1.773       .  S
C6           O19   1.269       .  A
C6         C4503   1.474       .  S
O7           C17   1.266       .  A
O7           Al9   1.930       .  S
O8           C21   1.262       .  A
O8          Al18   1.885       .  S
Al9          O22   1.941       .  S
Al9          O19   1.958       .  S
Al9          O14   1.794       .  S
O10          C17   1.263       .  A
O10         Al18   1.904       .  S
O11          C20   1.264       .  A
O11         Al18   1.935       .  S
O12         Al18   1.911       .  S
O13          C20   1.260       .  A
O14         Al18   1.785       .  S
O15          C16   1.258       .  A
C16        C4476   1.475       .  S
C17        C4380   1.494       .  S
C20        C4452   1.483       .  S
C21          O22   1.268       .  A
C21        C4404   1.490       .  S
O23          C38   1.261       .  A
O23         Al31   1.921       .  S
C24          O34   1.260       .  A
C24          O25   1.256       .  A
C24        C4356   1.473       .  S
O25         Al27   1.894       .  S
O26          C28   1.257       .  A
O26         Al27   1.874       .  S
Al27         O35   1.896       .  S
Al27         O37   1.894       .  S
Al27         O36   1.780       .  S
C28          O41   1.270       .  A
C28        C4308   1.467       .  S
O29          C39   1.267       .  A
O29         Al31   1.929       .  S
O30          C43   1.261       .  A
O30         Al40   1.892       .  S
Al31         O44   1.936       .  S
Al31         O41   1.956       .  S
Al31         O36   1.794       .  S
O32          C39   1.263       .  A
O32         Al40   1.894       .  S
O33          C42   1.266       .  A
O33         Al40   1.921       .  S
O34         Al40   1.917       .  S
O35          C42   1.262       .  A
O36         Al40   1.778       .  S
O37          C38   1.256       .  A
C38        C4332   1.464       .  S
C39        C4287   1.490       .  S
C42        C4431   1.479       .  S
C43          O44   1.266       .  A
C43        C4263   1.489       .  S
O45          C60   1.262       .  A
O45         Al53   1.934       .  S
C46          O56   1.258       .  A
C46          O47   1.258       .  A
C46        C4455   1.468       .  S
O47         Al49   1.894       .  S
O48          C50   1.258       .  A
O48         Al49   1.874       .  S
Al49         O57   1.894       .  S
Al49         O59   1.907       .  S
Al49         O58   1.776       .  S
C50          O63   1.274       .  A
C50        C4236   1.476       .  S
O51          C61   1.266       .  A
O51         Al53   1.928       .  S
O52          C65   1.257       .  A
O52         Al62   1.871       .  S
Al53         O66   1.936       .  S
Al53         O63   1.970       .  S
Al53         O58   1.790       .  S
O54          C61   1.264       .  A
O54         Al62   1.910       .  S
O55          C64   1.268       .  A
O55         Al62   1.933       .  S
O56         Al62   1.906       .  S
O57          C64   1.263       .  A
O58         Al62   1.783       .  S
O59          C60   1.257       .  A
C60        C4212   1.478       .  S
C61        C4164   1.492       .  S
C64        C4359   1.483       .  S
C65          O66   1.267       .  A
C65        C4191   1.483       .  S
O67          C82   1.262       .  A
O67         Al75   1.916       .  S
C68          O78   1.260       .  A
C68          O69   1.257       .  A
C68        C4140   1.466       .  S
O69         Al71   1.891       .  S
O70          C72   1.258       .  A
O70         Al71   1.883       .  S
Al71         O79   1.893       .  S
Al71         O81   1.907       .  S
Al71         O80   1.771       .  S
C72          O85   1.270       .  A
C72        C4500   1.473       .  S
O73          C83   1.264       .  A
O73         Al75   1.908       .  S
O74          C87   1.259       .  A
O74         Al84   1.883       .  S
Al75         O88   1.941       .  S
Al75         O85   1.956       .  S
Al75         O80   1.789       .  S
O76          C83   1.266       .  A
O76         Al84   1.910       .  S
O77          C86   1.266       .  A
O77         Al84   1.928       .  S
O78         Al84   1.913       .  S
O79          C86   1.263       .  A
O80         Al84   1.778       .  S
O81          C82   1.259       .  A
C82        C4335   1.467       .  S
C83        C4068   1.482       .  S
C86        C4119   1.480       .  S
C87          O88   1.266       .  A
C87        C4092   1.486       .  S
O89         C104   1.264       .  A
O89         Al97   1.940       .  S
C90         O100   1.261       .  A
C90          O91   1.258       .  A
C90        C4044   1.469       .  S
O91         Al93   1.891       .  S
O92          C94   1.256       .  A
O92         Al93   1.868       .  S
Al93        O101   1.898       .  S
Al93        O103   1.887       .  S
Al93        O102   1.786       .  S
C94         O107   1.272       .  A
C94        C4239   1.482       .  S
O95         C105   1.268       .  A
O95         Al97   1.948       .  S
O96         C109   1.263       .  A
O96        Al106   1.891       .  S
Al97        O110   1.954       .  S
Al97        O107   1.969       .  S
Al97        O102   1.797       .  S
O98         C105   1.259       .  A
O98        Al106   1.896       .  S
O99         C108   1.262       .  A
O99        Al106   1.918       .  S
O100       Al106   1.912       .  S
O101        C108   1.261       .  A
O102       Al106   1.789       .  S
O103        C104   1.253       .  A
C104       C4479   1.479       .  S
C105       C4020   1.500       .  S
C108       C4143   1.481       .  S
C109        O110   1.272       .  A
C109       C3996   1.498       .  S
O111        C126   1.261       .  A
O111       Al119   1.931       .  S
C112        O122   1.257       .  A
C112        O113   1.257       .  A
C112       C4116   1.467       .  S
O113       Al115   1.898       .  S
O114        C116   1.256       .  A
O114       Al115   1.855       .  S
Al115       O123   1.887       .  S
Al115       O125   1.906       .  S
Al115       O124   1.778       .  S
C116        O129   1.274       .  A
C116       C4311   1.473       .  S
O117        C127   1.264       .  A
O117       Al119   1.921       .  S
O118        C131   1.260       .  A
O118       Al128   1.872       .  S
Al119       O132   1.947       .  S
Al119       O129   1.968       .  S
Al119       O124   1.791       .  S
O120        C127   1.262       .  A
O120       Al128   1.904       .  S
O121        C130   1.269       .  A
O121       Al128   1.937       .  S
O122       Al128   1.907       .  S
O123        C130   1.263       .  A
O124       Al128   1.780       .  S
O125        C126   1.256       .  A
C126       C4215   1.477       .  S
C127       C3948   1.489       .  S
C130       C4047   1.481       .  S
C131        O132   1.268       .  A
C131       C3972   1.488       .  S
O133        C148   1.265       .  A
O133       Al141   1.937       .  S
C134        O144   1.257       .  A
C134        O135   1.256       .  A
C134       C3924   1.460       .  S
O135       Al137   1.886       .  S
O136        C138   1.257       .  A
O136       Al137   1.871       .  S
Al137       O145   1.906       .  S
Al137       O147   1.900       .  S
Al137       O146   1.779       .  S
C138        O151   1.272       .  A
C138       C3876   1.475       .  S
O139        C149   1.265       .  A
O139       Al141   1.923       .  S
O140        C153   1.261       .  A
O140       Al150   1.885       .  S
Al141       O154   1.948       .  S
Al141       O151   1.966       .  S
Al141       O146   1.791       .  S
O142        C149   1.262       .  A
O142       Al150   1.905       .  S
O143        C152   1.267       .  A
O143       Al150   1.929       .  S
O144       Al150   1.902       .  S
O145        C152   1.265       .  A
O146       Al150   1.783       .  S
O147        C148   1.256       .  A
C148       C3855   1.479       .  S
C149       C3828   1.487       .  S
C152       C3900   1.484       .  S
C153        O154   1.269       .  A
C153       C4167   1.494       .  S
O155        C170   1.260       .  A
O155       Al163   1.918       .  S
C156        O166   1.260       .  A
C156        O157   1.257       .  A
C156       C3759   1.470       .  S
O157       Al159   1.897       .  S
O158        C160   1.258       .  A
O158       Al159   1.873       .  S
Al159       O167   1.886       .  S
Al159       O169   1.911       .  S
Al159       O168   1.777       .  S
C160        O173   1.276       .  A
C160       C3783   1.480       .  S
O161        C171   1.262       .  A
O161       Al163   1.908       .  S
O162        C175   1.263       .  A
O162       Al172   1.891       .  S
Al163       O176   1.961       .  S
Al163       O173   1.973       .  S
Al163       O168   1.784       .  S
O164        C171   1.260       .  A
O164       Al172   1.888       .  S
O165        C174   1.266       .  A
O165       Al172   1.919       .  S
O166       Al172   1.921       .  S
O167        C174   1.263       .  A
O168       Al172   1.779       .  S
O169        C170   1.257       .  A
C170       C3804   1.471       .  S
C171       C3708   1.478       .  S
C174       C3927   1.471       .  S
C175        O176   1.271       .  A
C175       C3732   1.503       .  S
O177        C192   1.262       .  A
O177       Al185   1.934       .  S
C178        O188   1.259       .  A
C178        O179   1.252       .  A
C178       C3903   1.473       .  S
O179       Al181   1.889       .  S
O180        C182   1.259       .  A
O180       Al181   1.877       .  S
Al181       O189   1.907       .  S
Al181       O191   1.899       .  S
Al181       O190   1.786       .  S
C182        O195   1.274       .  A
C182       C3684   1.473       .  S
O183        C193   1.265       .  A
O183       Al185   1.925       .  S
O184        C197   1.260       .  A
O184       Al194   1.898       .  S
Al185       O198   1.944       .  S
Al185       O195   1.967       .  S
Al185       O190   1.793       .  S
O186        C193   1.262       .  A
O186       Al194   1.894       .  S
O187        C196   1.267       .  A
O187       Al194   1.910       .  S
O188       Al194   1.922       .  S
O189        C196   1.267       .  A
O190       Al194   1.781       .  S
O191        C192   1.254       .  A
C192       C3663   1.473       .  S
C193       C4407   1.487       .  S
C196       C3756   1.480       .  S
C197        O198   1.266       .  A
C197       C3636   1.502       .  S
O199        C214   1.264       .  A
O199       Al207   1.924       .  S
C200        O210   1.257       .  A
C200        O201   1.255       .  A
C200       C3612   1.476       .  S
O201       Al203   1.894       .  S
O202        C204   1.255       .  A
O202       Al203   1.871       .  S
Al203       O211   1.889       .  S
Al203       O213   1.910       .  S
Al203       O212   1.781       .  S
C204        O217   1.270       .  A
C204       C3780   1.472       .  S
O205        C215   1.266       .  A
O205       Al207   1.911       .  S
O206        C219   1.259       .  A
O206       Al216   1.900       .  S
Al207       O220   1.936       .  S
Al207       O217   1.964       .  S
Al207       O212   1.796       .  S
O208        C215   1.266       .  A
O208       Al216   1.910       .  S
O209        C218   1.268       .  A
O209       Al216   1.927       .  S
O210       Al216   1.911       .  S
O211        C218   1.262       .  A
O212       Al216   1.786       .  S
O213        C214   1.259       .  A
C214       C3660   1.472       .  S
C215       C4095   1.479       .  S
C218       C3588   1.483       .  S
C219        O220   1.264       .  A
C219       C3564   1.498       .  S
O221        C236   1.262       .  A
O221       Al229   1.942       .  S
C222        O232   1.259       .  A
C222        O223   1.254       .  A
C222       C3591   1.472       .  S
O223       Al225   1.886       .  S
O224        C226   1.259       .  A
O224       Al225   1.869       .  S
Al225       O233   1.887       .  S
Al225       O235   1.904       .  S
Al225       O234   1.783       .  S
C226        O239   1.276       .  A
C226       C3687   1.474       .  S
O227        C237   1.267       .  A
O227       Al229   1.931       .  S
O228        C241   1.261       .  A
O228       Al238   1.885       .  S
Al229       O242   1.934       .  S
Al229       O239   1.969       .  S
Al229       O234   1.789       .  S
O230        C237   1.262       .  A
O230       Al238   1.902       .  S
O231        C240   1.271       .  A
O231       Al238   1.937       .  S
O232       Al238   1.922       .  S
O233        C240   1.264       .  A
O234       Al238   1.780       .  S
O235        C236   1.253       .  A
C236       C3852   1.481       .  S
C237       C3495   1.490       .  S
C240       C3543   1.481       .  S
C241        O242   1.266       .  A
C241       C3516   1.491       .  S
O243        C258   1.261       .  A
O243       Al251   1.923       .  S
C244        O254   1.257       .  A
C244        O245   1.257       .  A
C244       C3540   1.469       .  S
O245       Al247   1.893       .  S
O246        C248   1.258       .  A
O246       Al247   1.873       .  S
Al247       O255   1.888       .  S
Al247       O257   1.896       .  S
Al247       O256   1.777       .  S
C248        O261   1.273       .  A
C248       C3879   1.475       .  S
O249        C259   1.265       .  A
O249       Al251   1.915       .  S
O250        C263   1.259       .  A
O250       Al260   1.884       .  S
Al251       O264   1.936       .  S
Al251       O261   1.968       .  S
Al251       O256   1.788       .  S
O252        C259   1.265       .  A
O252       Al260   1.911       .  S
O253        C262   1.270       .  A
O253       Al260   1.942       .  S
O254       Al260   1.907       .  S
O255        C262   1.261       .  A
O256       Al260   1.779       .  S
O257        C258   1.256       .  A
C258       C3807   1.466       .  S
C259       C3471   1.484       .  S
C262       C3615   1.485       .  S
C263        O264   1.266       .  A
C263       C3951   1.489       .  S
O265        C280   1.263       .  A
O265       Al273   1.941       .  S
C266        O276   1.260       .  A
C266        O267   1.256       .  A
C266       C3396   1.479       .  S
O267       Al269   1.897       .  S
O268        C270   1.258       .  A
O268       Al269   1.867       .  S
Al269       O277   1.892       .  S
Al269       O279   1.898       .  S
Al269       O278   1.783       .  S
C270        O283   1.273       .  A
C270       C3447   1.470       .  S
O271        C281   1.266       .  A
O271       Al273   1.938       .  S
O272        C285   1.262       .  A
O272       Al282   1.889       .  S
Al273       O286   1.940       .  S
Al273       O283   1.959       .  S
Al273       O278   1.794       .  S
O274        C281   1.260       .  A
O274       Al282   1.892       .  S
O275        C284   1.267       .  A
O275       Al282   1.923       .  S
O276       Al282   1.925       .  S
O277        C284   1.263       .  A
O278       Al282   1.785       .  S
O279        C280   1.254       .  A
C280       C3420   1.481       .  S
C281       C3735   1.497       .  S
C284       C3372   1.477       .  S
C285        O286   1.268       .  A
C285       C3351   1.493       .  S
O287        C302   1.263       .  A
O287       Al295   1.921       .  S
C288        O298   1.256       .  A
C288        O289   1.257       .  A
C288       C3375   1.463       .  S
O289       Al291   1.891       .  S
O290        C292   1.256       .  A
O290       Al291   1.874       .  S
Al291       O299   1.885       .  S
Al291       O301   1.907       .  S
Al291       O300   1.773       .  S
C292        O305   1.273       .  A
C292       C3300   1.474       .  S
O293        C303   1.266       .  A
O293       Al295   1.911       .  S
O294        C307   1.258       .  A
O294       Al304   1.877       .  S
Al295       O308   1.944       .  S
Al295       O305   1.972       .  S
Al295       O300   1.788       .  S
O296        C303   1.267       .  A
O296       Al304   1.911       .  S
O297        C306   1.269       .  A
O297       Al304   1.934       .  S
O298       Al304   1.901       .  S
O299        C306   1.261       .  A
O300       Al304   1.777       .  S
O301        C302   1.259       .  A
C302       C3276   1.467       .  S
C303       C3231   1.480       .  S
C306       C3324   1.482       .  S
C307        O308   1.266       .  A
C307       C3252   1.488       .  S
O309        C324   1.261       .  A
O309       Al317   1.925       .  S
C310        O320   1.259       .  A
C310        O311   1.255       .  A
C310       C3327   1.475       .  S
O311       Al313   1.889       .  S
O312        C314   1.258       .  A
O312       Al313   1.875       .  S
Al313       O321   1.904       .  S
Al313       O323   1.897       .  S
Al313       O322   1.781       .  S
C314        O327   1.271       .  A
C314       C3180   1.469       .  S
O315        C325   1.265       .  A
O315       Al317   1.914       .  S
O316        C329   1.260       .  A
O316       Al326   1.888       .  S
Al317       O330   1.927       .  S
Al317       O327   1.958       .  S
Al317       O322   1.793       .  S
O318        C325   1.266       .  A
O318       Al326   1.917       .  S
O319        C328   1.271       .  A
O319       Al326   1.937       .  S
O320       Al326   1.917       .  S
O321        C328   1.265       .  A
O322       Al326   1.779       .  S
O323        C324   1.256       .  A
C324       C3204   1.469       .  S
C325       C3159   1.490       .  S
C328       C3399   1.491       .  S
C329        O330   1.264       .  A
C329       C3831   1.488       .  S
O331        C346   1.263       .  A
O331       Al339   1.939       .  S
C332        O342   1.261       .  A
C332        O333   1.257       .  A
C332       C3108   1.469       .  S
O333       Al335   1.888       .  S
O334        C336   1.257       .  A
O334       Al335   1.871       .  S
Al335       O343   1.888       .  S
Al335       O345   1.896       .  S
Al335       O344   1.779       .  S
C336        O349   1.273       .  A
C336       C3303   1.475       .  S
O337        C347   1.266       .  A
O337       Al339   1.930       .  S
O338        C351   1.264       .  A
O338       Al348   1.892       .  S
Al339       O352   1.932       .  S
Al339       O349   1.961       .  S
Al339       O344   1.788       .  S
O340        C347   1.262       .  A
O340       Al348   1.908       .  S
O341        C350   1.268       .  A
O341       Al348   1.941       .  S
O342       Al348   1.918       .  S
O343        C350   1.261       .  A
O344       Al348   1.784       .  S
O345        C346   1.254       .  A
C346       C3423   1.479       .  S
C347       C3567   1.494       .  S
C350       C3132   1.482       .  S
C351        O352   1.267       .  A
C351       C3087   1.487       .  S
O353        C368   1.263       .  A
O353       Al361   1.919       .  S
C354        O364   1.259       .  A
C354        O355   1.258       .  A
C354       C3135   1.468       .  S
O355       Al357   1.896       .  S
O356        C358   1.256       .  A
O356       Al357   1.871       .  S
Al357       O365   1.900       .  S
Al357       O367   1.907       .  S
Al357       O366   1.776       .  S
C358        O371   1.272       .  A
C358       C3444   1.473       .  S
O359        C369   1.266       .  A
O359       Al361   1.923       .  S
O360        C373   1.260       .  A
O360       Al370   1.884       .  S
Al361       O374   1.955       .  S
Al361       O371   1.965       .  S
Al361       O366   1.788       .  S
O362        C369   1.262       .  A
O362       Al370   1.893       .  S
O363        C372   1.264       .  A
O363       Al370   1.910       .  S
O364       Al370   1.909       .  S
O365        C372   1.263       .  A
O366       Al370   1.778       .  S
O367        C368   1.258       .  A
C368       C3207   1.468       .  S
C369       C3012   1.483       .  S
C372       C3063   1.475       .  S
C373        O374   1.269       .  A
C373       C3036   1.487       .  S
O375        C390   1.265       .  A
O375       Al383   1.941       .  S
C376        O386   1.257       .  A
C376        O377   1.253       .  A
C376       C3060   1.464       .  S
O377       Al379   1.883       .  S
O378        C380   1.258       .  A
O378       Al379   1.869       .  S
Al379       O387   1.889       .  S
Al379       O389   1.901       .  S
Al379       O388   1.780       .  S
C380        O393   1.274       .  A
C380       C3183   1.473       .  S
O381        C391   1.267       .  A
O381       Al383   1.925       .  S
O382        C395   1.260       .  A
O382       Al392   1.891       .  S
Al383       O396   1.945       .  S
Al383       O393   1.969       .  S
Al383       O388   1.788       .  S
O384        C391   1.264       .  A
O384       Al392   1.909       .  S
O385        C394   1.270       .  A
O385       Al392   1.929       .  S
O386       Al392   1.913       .  S
O387        C394   1.264       .  A
O388       Al392   1.779       .  S
O389        C390   1.255       .  A
C390       C3279   1.476       .  S
C391       C2988   1.489       .  S
C394       C3111   1.480       .  S
C395        O396   1.267       .  A
C395       C3492   1.497       .  S
O397        C412   1.262       .  A
O397       Al405   1.920       .  S
C398        O408   1.257       .  A
C398        O399   1.259       .  A
C398       C2964   1.466       .  S
O399       Al401   1.899       .  S
O400        C402   1.257       .  A
O400       Al401   1.876       .  S
Al401       O409   1.894       .  S
Al401       O411   1.906       .  S
Al401       O410   1.774       .  S
C402        O415   1.275       .  A
C402       C2940   1.482       .  S
O403        C413   1.265       .  A
O403       Al405   1.914       .  S
O404        C417   1.258       .  A
O404       Al414   1.870       .  S
Al405       O418   1.965       .  S
Al405       O415   1.977       .  S
Al405       O410   1.789       .  S
O406        C413   1.263       .  A
O406       Al414   1.901       .  S
O407        C416   1.267       .  A
O407       Al414   1.930       .  S
O408       Al414   1.902       .  S
O409        C416   1.262       .  A
O410       Al414   1.779       .  S
O411        C412   1.258       .  A
C412       C2895   1.469       .  S
C413       C4188   1.481       .  S
C416       C2916   1.484       .  S
C417        O418   1.271       .  A
C417       C3156   1.495       .  S
O419        C434   1.260       .  A
O419       Al427   1.917       .  S
C420        O430   1.262       .  A
C420        O421   1.256       .  A
C420       C2919   1.478       .  S
O421       Al423   1.890       .  S
O422        C424   1.256       .  A
O422       Al423   1.875       .  S
Al423       O431   1.895       .  S
Al423       O433   1.905       .  S
Al423       O432   1.778       .  S
C424        O437   1.273       .  A
C424       C2820   1.475       .  S
O425        C435   1.263       .  A
O425       Al427   1.910       .  S
O426        C439   1.263       .  A
O426       Al436   1.898       .  S
Al427       O440   1.945       .  S
Al427       O437   1.968       .  S
Al427       O432   1.796       .  S
O428        C435   1.264       .  A
O428       Al436   1.905       .  S
O429        C438   1.268       .  A
O429       Al436   1.935       .  S
O430       Al436   1.926       .  S
O431        C438   1.264       .  A
O432       Al436   1.781       .  S
O433        C434   1.258       .  A
C434       C2844   1.468       .  S
C435       C3255   1.479       .  S
C438       C2868   1.488       .  S
C439        O440   1.267       .  A
C439       C2799   1.498       .  S
O441        C456   1.261       .  A
O441       Al449   1.936       .  S
C442        O452   1.259       .  A
C442        O443   1.256       .  A
C442       C2871   1.477       .  S
O443       Al445   1.891       .  S
O444        C446   1.259       .  A
O444       Al445   1.882       .  S
Al445       O453   1.889       .  S
Al445       O455   1.901       .  S
Al445       O454   1.782       .  S
C446        O459   1.273       .  A
C446       C2772   1.481       .  S
O447        C457   1.265       .  A
O447       Al449   1.931       .  S
O448        C461   1.261       .  A
O448       Al458   1.883       .  S
Al449       O462   1.943       .  S
Al449       O459   1.963       .  S
Al449       O454   1.799       .  S
O450        C457   1.261       .  A
O450       Al458   1.898       .  S
O451        C460   1.267       .  A
O451       Al458   1.930       .  S
O452       Al458   1.921       .  S
O453        C460   1.262       .  A
O454       Al458   1.792       .  S
O455        C456   1.254       .  A
C456       C2748   1.482       .  S
C457       C2724   1.494       .  S
C460       C2967   1.480       .  S
C461        O462   1.267       .  A
C461       C4284   1.494       .  S
O463        C478   1.261       .  A
O463       Al471   1.936       .  S
C464        O474   1.259       .  A
C464        O465   1.256       .  A
C464       C2700   1.470       .  S
O465       Al467   1.890       .  S
O466        C468   1.260       .  A
O466       Al467   1.870       .  S
Al467       O475   1.886       .  S
Al467       O477   1.892       .  S
Al467       O476   1.775       .  S
C468        O481   1.275       .  A
C468       C2823   1.478       .  S
O469        C479   1.265       .  A
O469       Al471   1.923       .  S
O470        C483   1.260       .  A
O470       Al480   1.887       .  S
Al471       O484   1.933       .  S
Al471       O481   1.971       .  S
Al471       O476   1.787       .  S
O472        C479   1.263       .  A
O472       Al480   1.907       .  S
O473        C482   1.268       .  A
O473       Al480   1.927       .  S
O474       Al480   1.918       .  S
O475        C482   1.263       .  A
O476       Al480   1.784       .  S
O477        C478   1.253       .  A
C478       C2892   1.473       .  S
C479       C3999   1.488       .  S
C482       C2676   1.475       .  S
C483        O484   1.267       .  A
C483       C2652   1.488       .  S
O485        C500   1.261       .  A
O485       Al493   1.917       .  S
C486        O496   1.258       .  A
C486        O487   1.257       .  A
C486       C2628   1.472       .  S
O487       Al489   1.899       .  S
O488        C490   1.256       .  A
O488       Al489   1.868       .  S
Al489       O497   1.886       .  S
Al489       O499   1.904       .  S
Al489       O498   1.779       .  S
C490        O503   1.271       .  A
C490       C2775   1.478       .  S
O491        C501   1.264       .  A
O491       Al493   1.916       .  S
O492        C505   1.259       .  A
O492       Al502   1.883       .  S
Al493       O506   1.942       .  S
Al493       O503   1.969       .  S
Al493       O498   1.799       .  S
O494        C501   1.263       .  A
O494       Al502   1.898       .  S
O495        C504   1.264       .  A
O495       Al502   1.924       .  S
O496       Al502   1.910       .  S
O497        C504   1.261       .  A
O498       Al502   1.786       .  S
O499        C500   1.258       .  A
C500       C2847   1.468       .  S
C501       C3084   1.476       .  S
C504       C2703   1.481       .  S
C505        O506   1.266       .  A
C505       C4071   1.491       .  S
O507        C522   1.261       .  A
O507       Al515   1.925       .  S
C508        O518   1.259       .  A
C508        O509   1.259       .  A
C508       C2679   1.464       .  S
O509       Al511   1.897       .  S
O510        C512   1.259       .  A
O510       Al511   1.882       .  S
Al511       O519   1.905       .  S
Al511       O521   1.908       .  S
Al511       O520   1.777       .  S
C512        O525   1.272       .  A
C512       C2943   1.477       .  S
O513        C523   1.264       .  A
O513       Al515   1.917       .  S
O514        C527   1.260       .  A
O514       Al524   1.878       .  S
Al515       O528   1.939       .  S
Al515       O525   1.961       .  S
Al515       O520   1.786       .  S
O516        C523   1.263       .  A
O516       Al524   1.918       .  S
O517        C526   1.268       .  A
O517       Al524   1.932       .  S
O518       Al524   1.906       .  S
O519        C526   1.264       .  A
O520       Al524   1.786       .  S
O521        C522   1.257       .  A
C522       C2751   1.477       .  S
C523       C2604   1.494       .  S
C526       C2631   1.484       .  S
C527        O528   1.269       .  A
C527       C3015   1.485       .  S
O529        C544   1.261       .  A
O529       Al537   1.914       .  S
C530        O540   1.257       .  A
C530        O531   1.257       .  A
C530       C2532   1.466       .  S
O531       Al533   1.890       .  S
O532        C534   1.255       .  A
O532       Al533   1.875       .  S
Al533       O541   1.882       .  S
Al533       O543   1.908       .  S
Al533       O542   1.775       .  S
C534        O547   1.269       .  A
C534       C2556   1.476       .  S
O535        C545   1.266       .  A
O535       Al537   1.916       .  S
O536        C549   1.260       .  A
O536       Al546   1.891       .  S
Al537       O550   1.932       .  S
Al537       O547   1.962       .  S
Al537       O542   1.789       .  S
O538        C545   1.266       .  A
O538       Al546   1.907       .  S
O539        C548   1.267       .  A
O539       Al546   1.933       .  S
O540       Al546   1.903       .  S
O541        C548   1.260       .  A
O542       Al546   1.784       .  S
O543        C544   1.260       .  A
C544       C2580   1.467       .  S
C545       C2484   1.484       .  S
C548       C2508   1.481       .  S
C549        O550   1.265       .  A
C549       C4383   1.482       .  S
O551        C566   1.266       .  A
O551       Al559   1.937       .  S
C552        O562   1.255       .  A
C552        O553   1.254       .  A
C552       C2415   1.468       .  S
O553       Al555   1.890       .  S
O554        C556   1.256       .  A
O554       Al555   1.869       .  S
Al555       O563   1.866       .  S
Al555       O565   1.916       .  S
Al555       O564   1.776       .  S
C556        O569   1.274       .  A
C556       C2559   1.481       .  S
O557        C567   1.267       .  A
O557       Al559   1.916       .  S
O558        C571   1.259       .  A
O558       Al568   1.901       .  S
Al559       O572   1.948       .  S
Al559       O569   1.980       .  S
Al559       O564   1.788       .  S
O560        C567   1.268       .  A
O560       Al568   1.914       .  S
O561        C570   1.270       .  A
O561       Al568   1.940       .  S
O562       Al568   1.908       .  S
O563        C570   1.260       .  A
O564       Al568   1.784       .  S
O565        C566   1.260       .  A
C566       C2439   1.480       .  S
C567       C2388   1.485       .  S
C570       C2460   1.479       .  S
C571        O572   1.267       .  A
C571       C4023   1.504       .  S
O573        C588   1.265       .  A
O573       Al581   1.941       .  S
C574        O584   1.259       .  A
C574        O575   1.255       .  A
C574       C2343   1.469       .  S
O575       Al577   1.886       .  S
O576        C578   1.259       .  A
O576       Al577   1.883       .  S
Al577       O585   1.892       .  S
Al577       O587   1.900       .  S
Al577       O586   1.779       .  S
C578        O591   1.275       .  A
C578       C2364   1.483       .  S
O579        C589   1.269       .  A
O579       Al581   1.935       .  S
O580        C593   1.262       .  A
O580       Al590   1.891       .  S
Al581       O594   1.954       .  S
Al581       O591   1.974       .  S
Al581       O586   1.787       .  S
O582        C589   1.261       .  A
O582       Al590   1.890       .  S
O583        C592   1.267       .  A
O583       Al590   1.924       .  S
O584       Al590   1.920       .  S
O585        C592   1.263       .  A
O586       Al590   1.783       .  S
O587        C588   1.255       .  A
C588       C2436   1.478       .  S
C589       C2316   1.491       .  S
C592       C2535   1.478       .  S
C593        O594   1.269       .  A
C593       C2295   1.496       .  S
O595        C610   1.260       .  A
O595       Al603   1.920       .  S
C596        O606   1.261       .  A
C596        O597   1.257       .  A
C596       C2511   1.466       .  S
O597       Al599   1.889       .  S
O598        C600   1.256       .  A
O598       Al599   1.871       .  S
Al599       O607   1.903       .  S
Al599       O609   1.902       .  S
Al599       O608   1.781       .  S
C600        O613   1.272       .  A
C600       C2268   1.470       .  S
O601        C611   1.264       .  A
O601       Al603   1.925       .  S
O602        C615   1.261       .  A
O602       Al612   1.879       .  S
Al603       O616   1.944       .  S
Al603       O613   1.958       .  S
Al603       O608   1.793       .  S
O604        C611   1.261       .  A
O604       Al612   1.900       .  S
O605        C614   1.264       .  A
O605       Al612   1.919       .  S
O606       Al612   1.912       .  S
O607        C614   1.264       .  A
O608       Al612   1.781       .  S
O609        C610   1.256       .  A
C610       C2247   1.471       .  S
C611       C4260   1.493       .  S
C614       C2340   1.482       .  S
C615        O616   1.269       .  A
C615       C2223   1.490       .  S
O617        C632   1.259       .  A
O617       Al625   1.924       .  S
C618        O628   1.258       .  A
C618        O619   1.256       .  A
C618       C2196   1.466       .  S
O619       Al621   1.901       .  S
O620        C622   1.262       .  A
O620       Al621   1.873       .  S
Al621       O629   1.900       .  S
Al621       O631   1.892       .  S
Al621       O630   1.776       .  S
C622        O635   1.274       .  A
C622       C2271   1.473       .  S
O623        C633   1.262       .  A
O623       Al625   1.918       .  S
O624        C637   1.257       .  A
O624       Al634   1.869       .  S
Al625       O638   1.942       .  S
Al625       O635   1.961       .  S
Al625       O630   1.792       .  S
O626        C633   1.259       .  A
O626       Al634   1.882       .  S
O627        C636   1.265       .  A
O627       Al634   1.912       .  S
O628       Al634   1.909       .  S
O629        C636   1.265       .  A
O630       Al634   1.779       .  S
O631        C632   1.253       .  A
C632       C2583   1.467       .  S
C633       C2172   1.481       .  S
C636       C2412   1.473       .  S
C637        O638   1.268       .  A
C637       C2148   1.487       .  S
O639        C654   1.259       .  A
O639       Al647   1.920       .  S
C640        O650   1.261       .  A
C640        O641   1.257       .  A
C640       C2463   1.475       .  S
O641       Al643   1.886       .  S
O642        C644   1.258       .  A
O642       Al643   1.877       .  S
Al643       O651   1.907       .  S
Al643       O653   1.893       .  S
Al643       O652   1.784       .  S
C644        O657   1.270       .  A
C644       C2367   1.477       .  S
O645        C655   1.263       .  A
O645       Al647   1.920       .  S
O646        C659   1.262       .  A
O646       Al656   1.896       .  S
Al647       O660   1.934       .  S
Al647       O657   1.959       .  S
Al647       O652   1.797       .  S
O648        C655   1.260       .  A
O648       Al656   1.892       .  S
O649        C658   1.263       .  A
O649       Al656   1.910       .  S
O650       Al656   1.918       .  S
O651        C658   1.264       .  A
O652       Al656   1.789       .  S
O653        C654   1.255       .  A
C654       C2244   1.469       .  S
C655       C3975   1.488       .  S
C658       C2199   1.481       .  S
C659        O660   1.267       .  A
C659       C2124   1.492       .  S
O661        C676   1.260       .  A
O661       Al669   1.927       .  S
C662        O672   1.257       .  A
C662        O663   1.256       .  A
C662       C2031   1.472       .  S
O663       Al665   1.897       .  S
O664        C666   1.256       .  A
O664       Al665   1.858       .  S
Al665       O673   1.881       .  S
Al665       O675   1.909       .  S
Al665       O674   1.782       .  S
C666        O679   1.273       .  A
C666       C2100   1.468       .  S
O667        C677   1.266       .  A
O667       Al669   1.924       .  S
O668        C681   1.259       .  A
O668       Al678   1.884       .  S
Al669       O682   1.927       .  S
Al669       O679   1.965       .  S
Al669       O674   1.791       .  S
O670        C677   1.265       .  A
O670       Al678   1.914       .  S
O671        C680   1.271       .  A
O671       Al678   1.942       .  S
O672       Al678   1.908       .  S
O673        C680   1.262       .  A
O674       Al678   1.782       .  S
O675        C676   1.256       .  A
C676       C2076   1.476       .  S
C677       C2007   1.492       .  S
C680       C2052   1.483       .  S
C681        O682   1.265       .  A
C681       C2319   1.484       .  S
O683        C698   1.262       .  A
O683       Al691   1.926       .  S
C684        O694   1.254       .  A
C684        O685   1.255       .  A
C684       C1932   1.465       .  S
O685       Al687   1.889       .  S
O686        C688   1.259       .  A
O686       Al687   1.880       .  S
Al687       O695   1.883       .  S
Al687       O697   1.906       .  S
Al687       O696   1.779       .  S
C688        O701   1.276       .  A
C688       C1956   1.481       .  S
O689        C699   1.265       .  A
O689       Al691   1.912       .  S
O690        C703   1.256       .  A
O690       Al700   1.880       .  S
Al691       O704   1.951       .  S
Al691       O701   1.982       .  S
Al691       O696   1.788       .  S
O692        C699   1.269       .  A
O692       Al700   1.923       .  S
O693        C702   1.272       .  A
O693       Al700   1.947       .  S
O694       Al700   1.900       .  S
O695        C702   1.262       .  A
O696       Al700   1.782       .  S
O697        C698   1.257       .  A
C698       C1980   1.470       .  S
C699       C2796   1.487       .  S
C702       C2028   1.485       .  S
C703        O704   1.268       .  A
C703       C1908   1.495       .  S
O705        C720   1.259       .  A
O705       Al713   1.924       .  S
C706        O716   1.262       .  A
C706        O707   1.255       .  A
C706       C2055   1.476       .  S
O707       Al709   1.885       .  S
O708        C710   1.260       .  A
O708       Al709   1.877       .  S
Al709       O717   1.891       .  S
Al709       O719   1.899       .  S
Al709       O718   1.775       .  S
C710        O723   1.274       .  A
C710       C1884   1.471       .  S
O711        C721   1.262       .  A
O711       Al713   1.914       .  S
O712        C725   1.262       .  A
O712       Al722   1.893       .  S
Al713       O726   1.939       .  S
Al713       O723   1.962       .  S
Al713       O718   1.787       .  S
O714        C721   1.262       .  A
O714       Al722   1.895       .  S
O715        C724   1.268       .  A
O715       Al722   1.925       .  S
O716       Al722   1.932       .  S
O717        C724   1.266       .  A
O718       Al722   1.780       .  S
O719        C720   1.254       .  A
C720       C1860   1.470       .  S
C721       C2220   1.485       .  S
C724       C1935   1.476       .  S
C725        O726   1.268       .  A
C725       C2727   1.495       .  S
O727        C742   1.265       .  A
O727       Al735   1.933       .  S
C728        O738   1.254       .  A
C728        O729   1.256       .  A
C728       C1815   1.468       .  S
O729       Al731   1.895       .  S
O730        C732   1.257       .  A
O730       Al731   1.877       .  S
Al731       O739   1.883       .  S
Al731       O741   1.911       .  S
Al731       O740   1.777       .  S
C732        O745   1.270       .  A
C732       C1887   1.474       .  S
O733        C743   1.266       .  A
O733       Al735   1.919       .  S
O734        C747   1.257       .  A
O734       Al744   1.882       .  S
Al735       O748   1.937       .  S
Al735       O745   1.961       .  S
Al735       O740   1.793       .  S
O736        C743   1.267       .  A
O736       Al744   1.910       .  S
O737        C746   1.271       .  A
O737       Al744   1.944       .  S
O738       Al744   1.898       .  S
O739        C746   1.262       .  A
O740       Al744   1.787       .  S
O741        C742   1.259       .  A
C742       C2079   1.477       .  S
C743       C1788   1.487       .  S
C746       C1836   1.487       .  S
C747        O748   1.264       .  A
C747       C2607   1.481       .  S
O749        C764   1.260       .  A
O749       Al757   1.923       .  S
C750        O760   1.259       .  A
C750        O751   1.256       .  A
C750       C1839   1.477       .  S
O751       Al753   1.894       .  S
O752        C754   1.258       .  A
O752       Al753   1.866       .  S
Al753       O761   1.903       .  S
Al753       O763   1.893       .  S
Al753       O762   1.782       .  S
C754        O767   1.271       .  A
C754       C2103   1.466       .  S
O755        C765   1.261       .  A
O755       Al757   1.911       .  S
O756        C769   1.262       .  A
O756       Al766   1.892       .  S
Al757       O770   1.937       .  S
Al757       O767   1.954       .  S
Al757       O762   1.797       .  S
O758        C765   1.259       .  A
O758       Al766   1.893       .  S
O759        C768   1.266       .  A
O759       Al766   1.917       .  S
O760       Al766   1.916       .  S
O761        C768   1.265       .  A
O762       Al766   1.784       .  S
O763        C764   1.254       .  A
C764       C1983   1.469       .  S
C765       C2655   1.478       .  S
C768       C1767   1.482       .  S
C769        O770   1.267       .  A
C769       C2391   1.494       .  S
O771        C786   1.260       .  A
O771       Al779   1.923       .  S
C772        O782   1.258       .  A
C772        O773   1.256       .  A
C772       C1764   1.467       .  S
O773       Al775   1.890       .  S
O774        C776   1.258       .  A
O774       Al775   1.875       .  S
Al775       O783   1.883       .  S
Al775       O785   1.901       .  S
Al775       O784   1.776       .  S
C776        O789   1.275       .  A
C776       C1959   1.483       .  S
O777        C787   1.263       .  A
O777       Al779   1.915       .  S
O778        C791   1.261       .  A
O778       Al788   1.885       .  S
Al779       O792   1.947       .  S
Al779       O789   1.974       .  S
Al779       O784   1.790       .  S
O780        C787   1.262       .  A
O780       Al788   1.897       .  S
O781        C790   1.268       .  A
O781       Al788   1.940       .  S
O782       Al788   1.915       .  S
O783        C790   1.262       .  A
O784       Al788   1.783       .  S
O785        C786   1.256       .  A
C786       C1863   1.471       .  S
C787       C2151   1.480       .  S
C790       C1812   1.480       .  S
C791        O792   1.269       .  A
C791       C1740   1.493       .  S
O793        C808   1.259       .  A
O793       Al801   1.916       .  S
C794        O804   1.260       .  A
C794        O795   1.257       .  A
C794       C1692   1.471       .  S
O795       Al797   1.893       .  S
O796        C798   1.258       .  A
O796       Al797   1.877       .  S
Al797       O805   1.898       .  S
Al797       O807   1.896       .  S
Al797       O806   1.777       .  S
C798        O811   1.273       .  A
C798       C1671   1.479       .  S
O799        C809   1.262       .  A
O799       Al801   1.908       .  S
O800        C813   1.263       .  A
O800       Al810   1.892       .  S
Al801       O814   1.941       .  S
Al801       O811   1.968       .  S
Al801       O806   1.791       .  S
O802        C809   1.264       .  A
O802       Al810   1.910       .  S
O803        C812   1.269       .  A
O803       Al810   1.936       .  S
O804       Al810   1.916       .  S
O805        C812   1.263       .  A
O806       Al810   1.779       .  S
O807        C808   1.257       .  A
C808       C1644   1.465       .  S
C809       C3519   1.482       .  S
C812       C1719   1.485       .  S
C813        O814   1.268       .  A
C813       C1620   1.493       .  S
O815        C830   1.261       .  A
O815       Al823   1.921       .  S
C816        O826   1.260       .  A
C816        O817   1.256       .  A
C816       C1716   1.465       .  S
O817       Al819   1.889       .  S
O818        C820   1.255       .  A
O818       Al819   1.867       .  S
Al819       O827   1.885       .  S
Al819       O829   1.903       .  S
Al819       O828   1.774       .  S
C820        O833   1.271       .  A
C820       C1572   1.469       .  S
O821        C831   1.264       .  A
O821       Al823   1.916       .  S
O822        C835   1.261       .  A
O822       Al832   1.880       .  S
Al823       O836   1.940       .  S
Al823       O833   1.960       .  S
Al823       O828   1.792       .  S
O824        C831   1.264       .  A
O824       Al832   1.905       .  S
O825        C834   1.267       .  A
O825       Al832   1.937       .  S
O826       Al832   1.912       .  S
O827        C834   1.261       .  A
O828       Al832   1.778       .  S
O829        C830   1.257       .  A
C830       C1548   1.469       .  S
C831       C1527   1.483       .  S
C834       C1596   1.481       .  S
C835        O836   1.267       .  A
C835       C2175   1.487       .  S
O837        C852   1.259       .  A
O837       Al845   1.915       .  S
C838        O848   1.259       .  A
C838        O839   1.259       .  A
C838       C1599   1.468       .  S
O839       Al841   1.899       .  S
O840        C842   1.256       .  A
O840       Al841   1.864       .  S
Al841       O849   1.889       .  S
Al841       O851   1.904       .  S
Al841       O850   1.775       .  S
C842        O855   1.273       .  A
C842       C1503   1.474       .  S
O843        C853   1.265       .  A
O843       Al845   1.922       .  S
O844        C857   1.259       .  A
O844       Al854   1.872       .  S
Al845       O858   1.952       .  S
Al845       O855   1.967       .  S
Al845       O850   1.793       .  S
O846        C853   1.265       .  A
O846       Al854   1.910       .  S
O847        C856   1.267       .  A
O847       Al854   1.934       .  S
O848       Al854   1.908       .  S
O849        C856   1.261       .  A
O850       Al854   1.778       .  S
O851        C852   1.258       .  A
C852       C1479   1.467       .  S
C853       C2127   1.492       .  S
C856       C1695   1.483       .  S
C857        O858   1.269       .  A
C857       C3468   1.491       .  S
O859        C874   1.261       .  A
O859       Al867   1.918       .  S
C860        O870   1.260       .  A
C860        O861   1.258       .  A
C860       C1452   1.457       .  S
O861       Al863   1.888       .  S
O862        C864   1.257       .  A
O862       Al863   1.880       .  S
Al863       O871   1.902       .  S
Al863       O873   1.896       .  S
Al863       O872   1.777       .  S
C864        O877   1.270       .  A
C864       C1668   1.478       .  S
O865        C875   1.266       .  A
O865       Al867   1.929       .  S
O866        C879   1.261       .  A
O866       Al876   1.888       .  S
Al867       O880   1.942       .  S
Al867       O877   1.961       .  S
Al867       O872   1.789       .  S
O868        C875   1.265       .  A
O868       Al876   1.916       .  S
O869        C878   1.265       .  A
O869       Al876   1.933       .  S
O870       Al876   1.902       .  S
O871        C878   1.262       .  A
O872       Al876   1.783       .  S
O873        C874   1.258       .  A
C874       C1476   1.468       .  S
C875       C2292   1.498       .  S
C878       C1431   1.487       .  S
C879        O880   1.269       .  A
C879       C1407   1.490       .  S
O881        C896   1.262       .  A
O881       Al889   1.926       .  S
C882        O892   1.260       .  A
C882        O883   1.258       .  A
C882       C1428   1.469       .  S
O883       Al885   1.896       .  S
O884        C886   1.257       .  A
O884       Al885   1.869       .  S
Al885       O893   1.892       .  S
Al885       O895   1.902       .  S
Al885       O894   1.774       .  S
C886        O899   1.271       .  A
C886       C1500   1.465       .  S
O887        C897   1.264       .  A
O887       Al889   1.917       .  S
O888        C901   1.260       .  A
O888       Al898   1.872       .  S
Al889       O902   1.936       .  S
Al889       O899   1.956       .  S
Al889       O894   1.788       .  S
O890        C897   1.264       .  A
O890       Al898   1.909       .  S
O891        C900   1.268       .  A
O891       Al898   1.933       .  S
O892       Al898   1.914       .  S
O893        C900   1.263       .  A
O894       Al898   1.777       .  S
O895        C896   1.257       .  A
C896       C1551   1.472       .  S
C897       C1356   1.489       .  S
C900       C1380   1.481       .  S
C901        O902   1.266       .  A
C901       C3711   1.480       .  S
O903        C918   1.260       .  A
O903       Al911   1.921       .  S
C904        O914   1.260       .  A
C904        O905   1.259       .  A
C904       C1383   1.466       .  S
O905       Al907   1.897       .  S
O906        C908   1.255       .  A
O906       Al907   1.855       .  S
Al907       O915   1.890       .  S
Al907       O917   1.896       .  S
Al907       O916   1.779       .  S
C908        O921   1.274       .  A
C908       C1575   1.473       .  S
O909        C919   1.267       .  A
O909       Al911   1.932       .  S
O910        C923   1.261       .  A
O910       Al920   1.881       .  S
Al911       O924   1.948       .  S
Al911       O921   1.971       .  S
Al911       O916   1.788       .  S
O912        C919   1.261       .  A
O912       Al920   1.901       .  S
O913        C922   1.265       .  A
O913       Al920   1.918       .  S
O914       Al920   1.909       .  S
O915        C922   1.260       .  A
O916       Al920   1.779       .  S
O917        C918   1.255       .  A
C918       C1647   1.467       .  S
C919       C3639   1.494       .  S
C922       C1455   1.471       .  S
C923        O924   1.270       .  A
C923       C2487   1.490       .  S
O925        C940   1.261       .  A
O925       Al933   1.925       .  S
C926        O936   1.258       .  A
C926        O927   1.257       .  A
C926       C1332   1.462       .  S
O927       Al929   1.891       .  S
O928        C930   1.258       .  A
O928       Al929   1.872       .  S
Al929       O937   1.890       .  S
Al929       O939   1.898       .  S
Al929       O938   1.774       .  S
C930        O943   1.272       .  A
C930       C1311   1.474       .  S
O931        C941   1.264       .  A
O931       Al933   1.918       .  S
O932        C945   1.258       .  A
O932       Al942   1.877       .  S
Al933       O946   1.940       .  S
Al933       O943   1.964       .  S
Al933       O938   1.786       .  S
O934        C941   1.266       .  A
O934       Al942   1.920       .  S
O935        C944   1.270       .  A
O935       Al942   1.941       .  S
O936       Al942   1.905       .  S
O937        C944   1.263       .  A
O938       Al942   1.782       .  S
O939        C940   1.256       .  A
C940       C1260   1.470       .  S
C941       C3039   1.496       .  S
C944       C1287   1.485       .  S
C945        O946   1.268       .  A
C945       C1791   1.487       .  S
O947        C962   1.263       .  A
O947       Al955   1.930       .  S
C948        O958   1.258       .  A
C948        O949   1.257       .  A
C948       C1239   1.468       .  S
O949       Al951   1.893       .  S
O950        C952   1.256       .  A
O950       Al951   1.869       .  S
Al951       O959   1.883       .  S
Al951       O961   1.904       .  S
Al951       O960   1.775       .  S
C952        O965   1.274       .  A
C952       C1308   1.476       .  S
O953        C963   1.265       .  A
O953       Al955   1.920       .  S
O954        C967   1.261       .  A
O954       Al964   1.886       .  S
Al955       O968   1.959       .  S
Al955       O965   1.973       .  S
Al955       O960   1.790       .  S
O956        C963   1.264       .  A
O956       Al964   1.906       .  S
O957        C966   1.268       .  A
O957       Al964   1.939       .  S
O958       Al964   1.908       .  S
O959        C966   1.261       .  A
O960       Al964   1.780       .  S
O961        C962   1.258       .  A
C962       C1215   1.475       .  S
C963       C1404   1.484       .  S
C966       C1191   1.482       .  S
C967        O968   1.270       .  A
C967       C2004   1.499       .  S
O969        C984   1.262       .  A
O969       Al977   1.925       .  S
C970        O980   1.257       .  A
C970        O971   1.255       .  A
C970       C1140   1.468       .  S
O971       Al973   1.881       .  S
O972        C974   1.259       .  A
O972       Al973   1.886       .  S
Al973       O981   1.893       .  S
Al973       O983   1.898       .  S
Al973       O982   1.778       .  S
C974        O987   1.274       .  A
C974       C1164   1.482       .  S
O975        C985   1.267       .  A
O975       Al977   1.921       .  S
O976        C989   1.261       .  A
O976       Al986   1.891       .  S
Al977       O990   1.936       .  S
Al977       O987   1.972       .  S
Al977       O982   1.784       .  S
O978        C985   1.264       .  A
O978       Al986   1.905       .  S
O979        C988   1.271       .  A
O979       Al986   1.938       .  S
O980       Al986   1.912       .  S
O981        C988   1.263       .  A
O982       Al986   1.781       .  S
O983        C984   1.256       .  A
C984       C1263   1.467       .  S
C985       C3348   1.489       .  S
C988       C1236   1.485       .  S
C989        O990   1.266       .  A
C989       C1359   1.481       .  S
O991       C1006   1.262       .  A
O991       Al999   1.932       .  S
C992       O1002   1.259       .  A
C992        O993   1.257       .  A
C992       C1188   1.472       .  S
O993       Al995   1.894       .  S
O994        C996   1.258       .  A
O994       Al995   1.870       .  S
Al995      O1003   1.887       .  S
Al995      O1005   1.908       .  S
Al995      O1004   1.780       .  S
C996       O1009   1.272       .  A
C996       C1116   1.475       .  S
O997       C1007   1.267       .  A
O997       Al999   1.924       .  S
O998       C1011   1.259       .  A
O998      Al1008   1.879       .  S
Al999      O1012   1.931       .  S
Al999      O1009   1.966       .  S
Al999      O1004   1.792       .  S
O1000      C1007   1.261       .  A
O1000     Al1008   1.897       .  S
O1001      C1010   1.265       .  A
O1001     Al1008   1.918       .  S
O1002     Al1008   1.912       .  S
O1003      C1010   1.263       .  A
O1004     Al1008   1.786       .  S
O1005      C1006   1.256       .  A
C1006      C1092   1.479       .  S
C1007      C1911   1.484       .  S
C1010      C1143   1.476       .  S
C1011      O1012   1.265       .  A
C1011      C3228   1.486       .  S
O1013      C1028   1.262       .  A
O1013     Al1021   1.927       .  S
C1014      O1024   1.259       .  A
C1014      O1015   1.260       .  A
C1014      C1284   1.472       .  S
O1015     Al1017   1.902       .  S
O1016      C1018   1.257       .  A
O1016     Al1017   1.875       .  S
Al1017     O1025   1.898       .  S
Al1017     O1027   1.903       .  S
Al1017     O1026   1.778       .  S
C1018      O1031   1.274       .  A
C1018      C1167   1.484       .  S
O1019      C1029   1.267       .  A
O1019     Al1021   1.931       .  S
O1020      C1033   1.260       .  A
O1020     Al1030   1.878       .  S
Al1021     O1034   1.954       .  S
Al1021     O1031   1.976       .  S
Al1021     O1026   1.792       .  S
O1022      C1029   1.264       .  A
O1022     Al1030   1.909       .  S
O1023      C1032   1.267       .  A
O1023     Al1030   1.938       .  S
O1024     Al1030   1.907       .  S
O1025      C1032   1.261       .  A
O1026     Al1030   1.781       .  S
O1027      C1028   1.258       .  A
C1028      C1095   1.474       .  S
C1029      C1743   1.496       .  S
C1032      C1068   1.490       .  S
C1033      O1034   1.270       .  A
C1033      C1524   1.492       .  S
O1035      C1050   1.264       .  A
O1035     Al1043   1.936       .  S
C1036      O1046   1.261       .  A
C1036      O1037   1.257       .  A
C1036      C1071   1.481       .  S
O1037     Al1039   1.899       .  S
O1038      C1040   1.257       .  A
O1038     Al1039   1.872       .  S
Al1039     O1047   1.887       .  S
Al1039     O1049   1.908       .  S
Al1039     O1048   1.778       .  S
C1040      O1053   1.270       .  A
C1040      C1119   1.471       .  S
O1041      C1051   1.264       .  A
O1041     Al1043   1.922       .  S
O1042      C1055   1.263       .  A
O1042     Al1052   1.904       .  S
Al1043     O1056   1.938       .  S
Al1043     O1053   1.957       .  S
Al1043     O1048   1.793       .  S
O1044      C1051   1.262       .  A
O1044     Al1052   1.896       .  S
O1045      C1054   1.265       .  A
O1045     Al1052   1.918       .  S
O1046     Al1052   1.925       .  S
O1047      C1054   1.262       .  A
O1048     Al1052   1.786       .  S
O1049      C1050   1.258       .  A
C1050      C1212   1.481       .  S
C1051      C1623   1.483       .  S
C1054      C1335   1.475       .  S
C1055      O1056   1.267       .  A
C1055      C2991   1.498       .  S
C1057      C1058   1.402       .  A
C1057      C1062   1.404       .  A
C1057      H1073   1.083       .  S
C1058      C1059   1.405       .  A
C1058      H1074   1.083       .  S
C1059      C1069   1.408       .  A
C1059      C1060   1.411       .  A
C1060      C1066   1.412       .  A
C1060      C1061   1.416       .  A
C1061      C1063   1.410       .  A
C1061      C1062   1.414       .  A
C1062      C1070   1.411       .  A
C1063      C1072   1.403       .  A
C1063      C1064   1.404       .  A
C1064      C1065   1.400       .  A
C1064      H1075   1.084       .  S
C1065      C1066   1.404       .  A
C1065      H1076   1.084       .  S
C1066      C1067   1.405       .  A
C1067      C1068   1.410       .  A
C1067      H1077   1.084       .  S
C1068      C1069   1.410       .  A
C1069      H1078   1.084       .  S
C1070      C1071   1.406       .  A
C1070      H1079   1.084       .  S
C1071      C1072   1.408       .  A
C1072      H1080   1.085       .  S
C1081      C1082   1.401       .  A
C1081      C1086   1.404       .  A
C1081      H1097   1.084       .  S
C1082      C1083   1.404       .  A
C1082      H1098   1.084       .  S
C1083      C1093   1.407       .  A
C1083      C1084   1.412       .  A
C1084      C1090   1.413       .  A
C1084      C1085   1.417       .  A
C1085      C1087   1.413       .  A
C1085      C1086   1.412       .  A
C1086      C1094   1.406       .  A
C1087      C1096   1.409       .  A
C1087      C1088   1.404       .  A
C1088      C1089   1.402       .  A
C1088      H1099   1.083       .  S
C1089      C1090   1.405       .  A
C1089      H1100   1.084       .  S
C1090      C1091   1.409       .  A
C1091      C1092   1.406       .  A
C1091      H1101   1.085       .  S
C1092      C1093   1.406       .  A
C1093      H1102   1.085       .  S
C1094      C1095   1.406       .  A
C1094      H1103   1.085       .  S
C1095      C1096   1.405       .  A
C1096      H1104   1.084       .  S
C1105      C1106   1.401       .  A
C1105      C1110   1.404       .  A
C1105      H1121   1.083       .  S
C1106      C1107   1.404       .  A
C1106      H1122   1.084       .  S
C1107      C1117   1.409       .  A
C1107      C1108   1.414       .  A
C1108      C1114   1.411       .  A
C1108      C1109   1.415       .  A
C1109      C1111   1.414       .  A
C1109      C1110   1.411       .  A
C1110      C1118   1.404       .  A
C1111      C1120   1.406       .  A
C1111      C1112   1.403       .  A
C1112      C1113   1.399       .  A
C1112      H1123   1.084       .  S
C1113      C1114   1.404       .  A
C1113      H1124   1.084       .  S
C1114      C1115   1.402       .  A
C1115      C1116   1.406       .  A
C1115      H1125   1.085       .  S
C1116      C1117   1.405       .  A
C1117      H1126   1.085       .  S
C1118      C1119   1.406       .  A
C1118      H1127   1.085       .  S
C1119      C1120   1.403       .  A
C1120      H1128   1.085       .  S
C1129      C1130   1.393       .  A
C1129      C1134   1.401       .  A
C1129      H1145   1.084       .  S
C1130      C1131   1.401       .  A
C1130      H1146   1.084       .  S
C1131      C1141   1.390       .  A
C1131      C1132   1.409       .  A
C1132      C1138   1.415       .  A
C1132      C1133   1.409       .  A
C1133      C1135   1.410       .  A
C1133      C1134   1.412       .  A
C1134      C1142   1.395       .  A
C1135      C1144   1.404       .  A
C1135      C1136   1.405       .  A
C1136      C1137   1.402       .  A
C1136      H1147   1.083       .  S
C1137      C1138   1.404       .  A
C1137      H1148   1.084       .  S
C1138      C1139   1.409       .  A
C1139      C1140   1.404       .  A
C1139      H1149   1.084       .  S
C1140      C1141   1.403       .  A
C1141      H1150   1.085       .  S
C1142      C1143   1.403       .  A
C1142      H1151   1.084       .  S
C1143      C1144   1.410       .  A
C1144      H1152   1.084       .  S
C1153      C1154   1.401       .  A
C1153      C1158   1.405       .  A
C1153      H1169   1.083       .  S
C1154      C1155   1.404       .  A
C1154      H1170   1.084       .  S
C1155      C1165   1.410       .  A
C1155      C1156   1.414       .  A
C1156      C1162   1.411       .  A
C1156      C1157   1.419       .  A
C1157      C1159   1.414       .  A
C1157      C1158   1.411       .  A
C1158      C1166   1.407       .  A
C1159      C1168   1.413       .  A
C1159      C1160   1.405       .  A
C1160      C1161   1.403       .  A
C1160      H1171   1.083       .  S
C1161      C1162   1.405       .  A
C1161      H1172   1.083       .  S
C1162      C1163   1.408       .  A
C1163      C1164   1.408       .  A
C1163      H1173   1.085       .  S
C1164      C1165   1.405       .  A
C1165      H1174   1.085       .  S
C1166      C1167   1.408       .  A
C1166      H1175   1.085       .  S
C1167      C1168   1.407       .  A
C1168      H1176   1.084       .  S
C1177      C1178   1.402       .  A
C1177      C1182   1.405       .  A
C1177      H1193   1.083       .  S
C1178      C1179   1.404       .  A
C1178      H1194   1.084       .  S
C1179      C1189   1.409       .  A
C1179      C1180   1.414       .  A
C1180      C1186   1.411       .  A
C1180      C1181   1.412       .  A
C1181      C1183   1.411       .  A
C1181      C1182   1.412       .  A
C1182      C1190   1.407       .  A
C1183      C1192   1.399       .  A
C1183      C1184   1.403       .  A
C1184      C1185   1.396       .  A
C1184      H1195   1.084       .  S
C1185      C1186   1.402       .  A
C1185      H1196   1.084       .  S
C1186      C1187   1.398       .  A
C1187      C1188   1.404       .  A
C1187      H1197   1.085       .  S
C1188      C1189   1.405       .  A
C1189      H1198   1.084       .  S
C1190      C1191   1.409       .  A
C1190      H1199   1.084       .  S
C1191      C1192   1.407       .  A
C1192      H1200   1.085       .  S
C1201      C1202   1.403       .  A
C1201      C1206   1.404       .  A
C1201      H1217   1.084       .  S
C1202      C1203   1.405       .  A
C1202      H1218   1.083       .  S
C1203      C1213   1.412       .  A
C1203      C1204   1.414       .  A
C1204      C1210   1.412       .  A
C1204      C1205   1.418       .  A
C1205      C1207   1.413       .  A
C1205      C1206   1.413       .  A
C1206      C1214   1.409       .  A
C1207      C1216   1.406       .  A
C1207      C1208   1.404       .  A
C1208      C1209   1.400       .  A
C1208      H1219   1.083       .  S
C1209      C1210   1.404       .  A
C1209      H1220   1.084       .  S
C1210      C1211   1.406       .  A
C1211      C1212   1.406       .  A
C1211      H1221   1.085       .  S
C1212      C1213   1.407       .  A
C1213      H1222   1.084       .  S
C1214      C1215   1.405       .  A
C1214      H1223   1.085       .  S
C1215      C1216   1.406       .  A
C1216      H1224   1.085       .  S
C1225      C1226   1.398       .  A
C1225      C1230   1.403       .  A
C1225      H1241   1.084       .  S
C1226      C1227   1.404       .  A
C1226      H1242   1.084       .  S
C1227      C1237   1.404       .  A
C1227      C1228   1.412       .  A
C1228      C1234   1.410       .  A
C1228      C1229   1.412       .  A
C1229      C1231   1.415       .  A
C1229      C1230   1.410       .  A
C1230      C1238   1.399       .  A
C1231      C1240   1.406       .  A
C1231      C1232   1.403       .  A
C1232      C1233   1.399       .  A
C1232      H1243   1.084       .  S
C1233      C1234   1.404       .  A
C1233      H1244   1.083       .  S
C1234      C1235   1.403       .  A
C1235      C1236   1.408       .  A
C1235      H1245   1.084       .  S
C1236      C1237   1.409       .  A
C1237      H1246   1.084       .  S
C1238      C1239   1.405       .  A
C1238      H1247   1.085       .  S
C1239      C1240   1.402       .  A
C1240      H1248   1.084       .  S
C1249      C1250   1.401       .  A
C1249      C1254   1.404       .  A
C1249      H1265   1.084       .  S
C1250      C1251   1.404       .  A
C1250      H1266   1.083       .  S
C1251      C1261   1.408       .  A
C1251      C1252   1.413       .  A
C1252      C1258   1.412       .  A
C1252      C1253   1.414       .  A
C1253      C1255   1.412       .  A
C1253      C1254   1.413       .  A
C1254      C1262   1.407       .  A
C1255      C1264   1.402       .  A
C1255      C1256   1.404       .  A
C1256      C1257   1.398       .  A
C1256      H1267   1.084       .  S
C1257      C1258   1.403       .  A
C1257      H1268   1.084       .  S
C1258      C1259   1.401       .  A
C1259      C1260   1.404       .  A
C1259      H1269   1.085       .  S
C1260      C1261   1.405       .  A
C1261      H1270   1.084       .  S
C1262      C1263   1.403       .  A
C1262      H1271   1.085       .  S
C1263      C1264   1.404       .  A
C1264      H1272   1.085       .  S
C1273      C1274   1.397       .  A
C1273      C1278   1.403       .  A
C1273      H1289   1.084       .  S
C1274      C1275   1.403       .  A
C1274      H1290   1.084       .  S
C1275      C1285   1.399       .  A
C1275      C1276   1.411       .  A
C1276      C1282   1.414       .  A
C1276      C1277   1.412       .  A
C1277      C1279   1.411       .  A
C1277      C1278   1.411       .  A
C1278      C1286   1.401       .  A
C1279      C1288   1.407       .  A
C1279      C1280   1.405       .  A
C1280      C1281   1.402       .  A
C1280      H1291   1.083       .  S
C1281      C1282   1.404       .  A
C1281      H1292   1.084       .  S
C1282      C1283   1.408       .  A
C1283      C1284   1.405       .  A
C1283      H1293   1.084       .  S
C1284      C1285   1.404       .  A
C1285      H1294   1.085       .  S
C1286      C1287   1.408       .  A
C1286      H1295   1.084       .  S
C1287      C1288   1.409       .  A
C1288      H1296   1.084       .  S
C1297      C1298   1.401       .  A
C1297      C1302   1.404       .  A
C1297      H1313   1.084       .  S
C1298      C1299   1.405       .  A
C1298      H1314   1.083       .  S
C1299      C1309   1.406       .  A
C1299      C1300   1.411       .  A
C1300      C1306   1.414       .  A
C1300      C1301   1.416       .  A
C1301      C1303   1.411       .  A
C1301      C1302   1.415       .  A
C1302      C1310   1.409       .  A
C1303      C1312   1.402       .  A
C1303      C1304   1.404       .  A
C1304      C1305   1.399       .  A
C1304      H1315   1.083       .  S
C1305      C1306   1.403       .  A
C1305      H1316   1.084       .  S
C1306      C1307   1.408       .  A
C1307      C1308   1.404       .  A
C1307      H1317   1.085       .  S
C1308      C1309   1.408       .  A
C1309      H1318   1.085       .  S
C1310      C1311   1.405       .  A
C1310      H1319   1.085       .  S
C1311      C1312   1.406       .  A
C1312      H1320   1.085       .  S
C1321      C1322   1.396       .  A
C1321      C1326   1.402       .  A
C1321      H1337   1.084       .  S
C1322      C1323   1.403       .  A
C1322      H1338   1.084       .  S
C1323      C1333   1.397       .  A
C1323      C1324   1.411       .  A
C1324      C1330   1.414       .  A
C1324      C1325   1.409       .  A
C1325      C1327   1.411       .  A
C1325      C1326   1.412       .  A
C1326      C1334   1.398       .  A
C1327      C1336   1.403       .  A
C1327      C1328   1.404       .  A
C1328      C1329   1.399       .  A
C1328      H1339   1.084       .  S
C1329      C1330   1.403       .  A
C1329      H1340   1.084       .  S
C1330      C1331   1.404       .  A
C1331      C1332   1.401       .  A
C1331      H1341   1.084       .  S
C1332      C1333   1.403       .  A
C1333      H1342   1.085       .  S
C1334      C1335   1.404       .  A
C1334      H1343   1.085       .  S
C1335      C1336   1.408       .  A
C1336      H1344   1.084       .  S
C1345      C1346   1.397   1_565  A
C1345      C1350   1.403       .  A
C1345      H1361   1.084       .  S
C1346      C1347   1.403       .  A
C1346      H1362   1.084       .  S
C1347      C1357   1.401       .  A
C1347      C1348   1.410       .  A
C1348      C1354   1.412       .  A
C1348      C1349   1.415   1_545  A
C1349      C1351   1.413       .  A
C1349      C1350   1.411       .  A
C1350      C1358   1.402       .  A
C1351      C1360   1.412       .  A
C1351      C1352   1.406       .  A
C1352      C1353   1.404   1_565  A
C1352      H1363   1.083       .  S
C1353      C1354   1.405       .  A
C1353      H1364   1.083       .  S
C1354      C1355   1.412       .  A
C1355      C1356   1.410       .  A
C1355      H1365   1.084       .  S
C1356      C1357   1.409       .  A
C1357      H1366   1.084       .  S
C1358      C1359   1.405       .  A
C1358      H1367   1.085       .  S
C1359      C1360   1.408       .  A
C1360      H1368   1.084       .  S
C1369      C1370   1.398       .  A
C1369      C1374   1.403       .  A
C1369      H1385   1.084       .  S
C1370      C1371   1.403       .  A
C1370      H1386   1.084       .  S
C1371      C1381   1.402       .  A
C1371      C1372   1.412       .  A
C1372      C1378   1.411       .  A
C1372      C1373   1.411       .  A
C1373      C1375   1.414       .  A
C1373      C1374   1.411       .  A
C1374      C1382   1.398       .  A
C1375      C1384   1.405       .  A
C1375      C1376   1.403       .  A
C1376      C1377   1.400       .  A
C1376      H1387   1.084       .  S
C1377      C1378   1.404       .  A
C1377      H1388   1.083       .  S
C1378      C1379   1.403       .  A
C1379      C1380   1.408       .  A
C1379      H1389   1.084       .  S
C1380      C1381   1.407       .  A
C1381      H1390   1.084       .  S
C1382      C1383   1.404       .  A
C1382      H1391   1.085       .  S
C1383      C1384   1.402       .  A
C1384      H1392   1.085       .  S
C1393      C1394   1.397   1_545  A
C1393      C1398   1.403       .  A
C1393      H1409   1.084       .  S
C1394      C1395   1.403       .  A
C1394      H1410   1.084       .  S
C1395      C1405   1.400       .  A
C1395      C1396   1.410       .  A
C1396      C1402   1.414       .  A
C1396      C1397   1.415   1_565  A
C1397      C1399   1.411       .  A
C1397      C1398   1.411       .  A
C1398      C1406   1.402       .  A
C1399      C1408   1.411       .  A
C1399      C1400   1.406       .  A
C1400      C1401   1.404   1_545  A
C1400      H1411   1.084       .  S
C1401      C1402   1.405       .  A
C1401      H1412   1.083       .  S
C1402      C1403   1.413       .  A
C1403      C1404   1.408       .  A
C1403      H1413   1.084       .  S
C1404      C1405   1.407       .  A
C1405      H1414   1.085       .  S
C1406      C1407   1.409       .  A
C1406      H1415   1.084       .  S
C1407      C1408   1.411       .  A
C1408      H1416   1.084       .  S
C1417      C1418   1.398       .  A
C1417      C1422   1.403       .  A
C1417      H1433   1.084       .  S
C1418      C1419   1.403       .  A
C1418      H1434   1.084       .  S
C1419      C1429   1.400       .  A
C1419      C1420   1.411       .  A
C1420      C1426   1.414       .  A
C1420      C1421   1.413       .  A
C1421      C1423   1.411       .  A
C1421      C1422   1.412       .  A
C1422      C1430   1.403       .  A
C1423      C1432   1.407       .  A
C1423      C1424   1.405       .  A
C1424      C1425   1.401       .  A
C1424      H1435   1.083       .  S
C1425      C1426   1.403       .  A
C1425      H1436   1.084       .  S
C1426      C1427   1.407       .  A
C1427      C1428   1.403       .  A
C1427      H1437   1.084       .  S
C1428      C1429   1.405       .  A
C1429      H1438   1.085       .  S
C1430      C1431   1.407       .  A
C1430      H1439   1.084       .  S
C1431      C1432   1.410       .  A
C1432      H1440   1.084       .  S
C1441      C1442   1.396       .  A
C1441      C1446   1.403       .  A
C1441      H1457   1.084       .  S
C1442      C1443   1.401       .  A
C1442      H1458   1.084       .  S
C1443      C1453   1.400       .  A
C1443      C1444   1.414       .  A
C1444      C1450   1.411       .  A
C1444      C1445   1.408       .  A
C1445      C1447   1.413       .  A
C1445      C1446   1.410       .  A
C1446      C1454   1.397       .  A
C1447      C1456   1.402       .  A
C1447      C1448   1.403       .  A
C1448      C1449   1.398       .  A
C1448      H1459   1.084       .  S
C1449      C1450   1.404       .  A
C1449      H1460   1.084       .  S
C1450      C1451   1.399       .  A
C1451      C1452   1.403       .  A
C1451      H1461   1.085       .  S
C1452      C1453   1.398       .  A
C1453      H1462   1.085       .  S
C1454      C1455   1.404       .  A
C1454      H1463   1.084       .  S
C1455      C1456   1.406       .  A
C1456      H1464   1.084       .  S
C1465      C1466   1.402       .  A
C1465      C1470   1.405       .  A
C1465      H1481   1.084       .  S
C1466      C1467   1.405       .  A
C1466      H1482   1.083       .  S
C1467      C1477   1.408       .  A
C1467      C1468   1.413       .  A
C1468      C1474   1.412       .  A
C1468      C1469   1.412       .  A
C1469      C1471   1.412       .  A
C1469      C1470   1.414       .  A
C1470      C1478   1.409       .  A
C1471      C1480   1.398       .  A
C1471      C1472   1.402       .  A
C1472      C1473   1.396       .  A
C1472      H1483   1.084       .  S
C1473      C1474   1.403       .  A
C1473      H1484   1.084       .  S
C1474      C1475   1.399       .  A
C1475      C1476   1.403       .  A
C1475      H1485   1.085       .  S
C1476      C1477   1.405       .  A
C1477      H1486   1.084       .  S
C1478      C1479   1.405       .  A
C1478      H1487   1.084       .  S
C1479      C1480   1.401       .  A
C1480      H1488   1.085       .  S
C1489      C1490   1.401       .  A
C1489      C1494   1.404       .  A
C1489      H1505   1.084       .  S
C1490      C1491   1.404       .  A
C1490      H1506   1.083       .  S
C1491      C1501   1.404       .  A
C1491      C1492   1.411       .  A
C1492      C1498   1.414       .  A
C1492      C1493   1.413       .  A
C1493      C1495   1.410       .  A
C1493      C1494   1.414       .  A
C1494      C1502   1.409       .  A
C1495      C1504   1.400       .  A
C1495      C1496   1.404       .  A
C1496      C1497   1.398       .  A
C1496      H1507   1.084       .  S
C1497      C1498   1.402       .  A
C1497      H1508   1.084       .  S
C1498      C1499   1.403       .  A
C1499      C1500   1.401       .  A
C1499      H1509   1.085       .  S
C1500      C1501   1.405       .  A
C1501      H1510   1.085       .  S
C1502      C1503   1.405       .  A
C1502      H1511   1.084       .  S
C1503      C1504   1.406       .  A
C1504      H1512   1.085       .  S
C1513      C1514   1.395       .  A
C1513      C1518   1.402       .  A
C1513      H1529   1.084       .  S
C1514      C1515   1.402       .  A
C1514      H1530   1.084       .  S
C1515      C1525   1.398       .  A
C1515      C1516   1.410       .  A
C1516      C1522   1.412       .  A
C1516      C1517   1.415       .  A
C1517      C1519   1.413       .  A
C1517      C1518   1.410       .  A
C1518      C1526   1.397       .  A
C1519      C1528   1.414       .  A
C1519      C1520   1.406       .  A
C1520      C1521   1.406       .  A
C1520      H1531   1.083       .  S
C1521      C1522   1.407       .  A
C1521      H1532   1.083       .  S
C1522      C1523   1.415       .  A
C1523      C1524   1.412       .  A
C1523      H1533   1.084       .  S
C1524      C1525   1.409       .  A
C1525      H1534   1.084       .  S
C1526      C1527   1.405       .  A
C1526      H1535   1.085       .  S
C1527      C1528   1.410       .  A
C1528      H1536   1.084       .  S
C1537      C1538   1.399       .  A
C1537      C1542   1.404       .  A
C1537      H1553   1.084       .  S
C1538      C1539   1.404       .  A
C1538      H1554   1.084       .  S
C1539      C1549   1.403       .  A
C1539      C1540   1.413       .  A
C1540      C1546   1.413       .  A
C1540      C1541   1.414       .  A
C1541      C1543   1.414       .  A
C1541      C1542   1.412       .  A
C1542      C1550   1.402       .  A
C1543      C1552   1.408       .  A
C1543      C1544   1.404       .  A
C1544      C1545   1.401       .  A
C1544      H1555   1.084       .  S
C1545      C1546   1.404       .  A
C1545      H1556   1.083       .  S
C1546      C1547   1.407       .  A
C1547      C1548   1.404       .  A
C1547      H1557   1.084       .  S
C1548      C1549   1.404       .  A
C1549      H1558   1.085       .  S
C1550      C1551   1.405       .  A
C1550      H1559   1.085       .  S
C1551      C1552   1.404       .  A
C1552      H1560   1.085       .  S
C1561      C1562   1.398       .  A
C1561      C1566   1.403       .  A
C1561      H1577   1.084       .  S
C1562      C1563   1.402       .  A
C1562      H1578   1.084       .  S
C1563      C1573   1.404       .  A
C1563      C1564   1.414       .  A
C1564      C1570   1.411       .  A
C1564      C1565   1.414       .  A
C1565      C1567   1.415       .  A
C1565      C1566   1.410       .  A
C1566      C1574   1.400       .  A
C1567      C1576   1.410       .  A
C1567      C1568   1.404       .  A
C1568      C1569   1.402       .  A
C1568      H1579   1.084       .  S
C1569      C1570   1.405       .  A
C1569      H1580   1.084       .  S
C1570      C1571   1.405       .  A
C1571      C1572   1.407       .  A
C1571      H1581   1.085       .  S
C1572      C1573   1.401       .  A
C1573      H1582   1.085       .  S
C1574      C1575   1.406       .  A
C1574      H1583   1.085       .  S
C1575      C1576   1.405       .  A
C1576      H1584   1.084       .  S
C1585      C1586   1.396       .  A
C1585      C1590   1.402       .  A
C1585      H1601   1.084       .  S
C1586      C1587   1.402       .  A
C1586      H1602   1.084       .  S
C1587      C1597   1.399       .  A
C1587      C1588   1.412       .  A
C1588      C1594   1.411       .  A
C1588      C1589   1.412       .  A
C1589      C1591   1.414       .  A
C1589      C1590   1.411       .  A
C1590      C1598   1.397       .  A
C1591      C1600   1.409       .  A
C1591      C1592   1.404       .  A
C1592      C1593   1.402       .  A
C1592      H1603   1.084       .  S
C1593      C1594   1.405       .  A
C1593      H1604   1.083       .  S
C1594      C1595   1.407       .  A
C1595      C1596   1.409       .  A
C1595      H1605   1.084       .  S
C1596      C1597   1.406       .  A
C1597      H1606   1.085       .  S
C1598      C1599   1.402       .  A
C1598      H1607   1.085       .  S
C1599      C1600   1.405       .  A
C1600      H1608   1.084       .  S
C1609      C1610   1.396       .  A
C1609      C1614   1.402       .  A
C1609      H1625   1.084       .  S
C1610      C1611   1.402       .  A
C1610      H1626   1.084       .  S
C1611      C1621   1.400       .  A
C1611      C1612   1.411       .  A
C1612      C1618   1.411       .  A
C1612      C1613   1.416       .  A
C1613      C1615   1.414       .  A
C1613      C1614   1.410       .  A
C1614      C1622   1.398       .  A
C1615      C1624   1.414       .  A
C1615      C1616   1.406       .  A
C1616      C1617   1.405       .  A
C1616      H1627   1.083       .  S
C1617      C1618   1.407       .  A
C1617      H1628   1.083       .  S
C1618      C1619   1.414       .  A
C1619      C1620   1.413       .  A
C1619      H1629   1.084       .  S
C1620      C1621   1.408       .  A
C1621      H1630   1.084       .  S
C1622      C1623   1.406       .  A
C1622      H1631   1.085       .  S
C1623      C1624   1.409       .  A
C1624      H1632   1.084       .  S
C1633      C1634   1.397       .  A
C1633      C1638   1.403       .  A
C1633      H1649   1.084       .  S
C1634      C1635   1.402       .  A
C1634      H1650   1.084       .  S
C1635      C1645   1.400       .  A
C1635      C1636   1.412       .  A
C1636      C1642   1.413       .  A
C1636      C1637   1.413       .  A
C1637      C1639   1.413       .  A
C1637      C1638   1.412       .  A
C1638      C1646   1.402       .  A
C1639      C1648   1.407       .  A
C1639      C1640   1.404       .  A
C1640      C1641   1.401       .  A
C1640      H1651   1.084       .  S
C1641      C1642   1.404       .  A
C1641      H1652   1.083       .  S
C1642      C1643   1.407       .  A
C1643      C1644   1.404       .  A
C1643      H1653   1.084       .  S
C1644      C1645   1.402       .  A
C1645      H1654   1.085       .  S
C1646      C1647   1.403       .  A
C1646      H1655   1.085       .  S
C1647      C1648   1.404       .  A
C1648      H1656   1.085       .  S
C1657      C1658   1.402       .  A
C1657      C1662   1.405       .  A
C1657      H1673   1.083       .  S
C1658      C1659   1.404       .  A
C1658      H1674   1.084       .  S
C1659      C1669   1.410       .  A
C1659      C1660   1.414       .  A
C1660      C1666   1.411       .  A
C1660      C1661   1.417       .  A
C1661      C1663   1.414       .  A
C1661      C1662   1.411       .  A
C1662      C1670   1.406       .  A
C1663      C1672   1.408       .  A
C1663      C1664   1.403       .  A
C1664      C1665   1.400       .  A
C1664      H1675   1.084       .  S
C1665      C1666   1.404       .  A
C1665      H1676   1.083       .  S
C1666      C1667   1.405       .  A
C1667      C1668   1.406       .  A
C1667      H1677   1.085       .  S
C1668      C1669   1.406       .  A
C1669      H1678   1.085       .  S
C1670      C1671   1.409       .  A
C1670      H1679   1.085       .  S
C1671      C1672   1.404       .  A
C1672      H1680   1.085       .  S
C1681      C1682   1.401       .  A
C1681      C1686   1.405       .  A
C1681      H1697   1.083       .  S
C1682      C1683   1.404       .  A
C1682      H1698   1.084       .  S
C1683      C1693   1.408       .  A
C1683      C1684   1.415       .  A
C1684      C1690   1.410       .  A
C1684      C1685   1.412       .  A
C1685      C1687   1.412       .  A
C1685      C1686   1.411       .  A
C1686      C1694   1.406       .  A
C1687      C1696   1.400       .  A
C1687      C1688   1.403       .  A
C1688      C1689   1.397       .  A
C1688      H1699   1.084       .  S
C1689      C1690   1.403       .  A
C1689      H1700   1.084       .  S
C1690      C1691   1.397       .  A
C1691      C1692   1.405       .  A
C1691      H1701   1.085       .  S
C1692      C1693   1.404       .  A
C1693      H1702   1.084       .  S
C1694      C1695   1.409       .  A
C1694      H1703   1.084       .  S
C1695      C1696   1.407       .  A
C1696      H1704   1.084       .  S
C1705      C1706   1.399       .  A
C1705      C1710   1.404       .  A
C1705      H1721   1.083       .  S
C1706      C1707   1.403       .  A
C1706      H1722   1.084       .  S
C1707      C1717   1.406       .  A
C1707      C1708   1.415       .  A
C1708      C1714   1.411       .  A
C1708      C1709   1.412       .  A
C1709      C1711   1.413       .  A
C1709      C1710   1.410       .  A
C1710      C1718   1.404       .  A
C1711      C1720   1.405       .  A
C1711      C1712   1.404       .  A
C1712      C1713   1.399       .  A
C1712      H1723   1.084       .  S
C1713      C1714   1.403       .  A
C1713      H1724   1.084       .  S
C1714      C1715   1.399       .  A
C1715      C1716   1.404       .  A
C1715      H1725   1.085       .  S
C1716      C1717   1.402       .  A
C1717      H1726   1.085       .  S
C1718      C1719   1.408       .  A
C1718      H1727   1.084       .  S
C1719      C1720   1.408       .  A
C1720      H1728   1.084       .  S
C1729      C1730   1.397       .  A
C1729      C1734   1.403       .  A
C1729      H1745   1.084       .  S
C1730      C1731   1.403       .  A
C1730      H1746   1.084       .  S
C1731      C1741   1.401       .  A
C1731      C1732   1.410       .  A
C1732      C1738   1.412       .  A
C1732      C1733   1.418       .  A
C1733      C1735   1.413       .  A
C1733      C1734   1.410       .  A
C1734      C1742   1.401       .  A
C1735      C1744   1.416       .  A
C1735      C1736   1.407       .  A
C1736      C1737   1.406       .  A
C1736      H1747   1.083       .  S
C1737      C1738   1.406       .  A
C1737      H1748   1.083       .  S
C1738      C1739   1.415       .  A
C1739      C1740   1.412       .  A
C1739      H1749   1.084       .  S
C1740      C1741   1.408       .  A
C1741      H1750   1.084       .  S
C1742      C1743   1.410       .  A
C1742      H1751   1.084       .  S
C1743      C1744   1.412       .  A
C1744      H1752   1.084       .  S
C1753      C1754   1.400       .  A
C1753      C1758   1.405       .  A
C1753      H1769   1.083       .  S
C1754      C1755   1.403       .  A
C1754      H1770   1.084       .  S
C1755      C1765   1.407       .  A
C1755      C1756   1.415       .  A
C1756      C1762   1.410       .  A
C1756      C1757   1.412       .  A
C1757      C1759   1.413       .  A
C1757      C1758   1.409       .  A
C1758      C1766   1.402       .  A
C1759      C1768   1.403       .  A
C1759      C1760   1.403       .  A
C1760      C1761   1.397       .  A
C1760      H1771   1.084       .  S
C1761      C1762   1.403       .  A
C1761      H1772   1.084       .  S
C1762      C1763   1.397       .  A
C1763      C1764   1.404       .  A
C1763      H1773   1.085       .  S
C1764      C1765   1.402       .  A
C1765      H1774   1.084       .  S
C1766      C1767   1.410       .  A
C1766      H1775   1.084       .  S
C1767      C1768   1.406       .  A
C1768      H1776   1.084       .  S
C1777      C1778   1.404       .  A
C1777      C1782   1.405       .  A
C1777      H1793   1.084       .  S
C1778      C1779   1.406       .  A
C1778      H1794   1.083       .  S
C1779      C1789   1.412       .  A
C1779      C1780   1.413       .  A
C1780      C1786   1.410       .  A
C1780      C1781   1.415       .  A
C1781      C1783   1.411       .  A
C1781      C1782   1.412       .  A
C1782      C1790   1.410       .  A
C1783      C1792   1.401       .  A
C1783      C1784   1.403       .  A
C1784      C1785   1.397       .  A
C1784      H1795   1.084       .  S
C1785      C1786   1.403       .  A
C1785      H1796   1.084       .  S
C1786      C1787   1.400       .  A
C1787      C1788   1.408       .  A
C1787      H1797   1.085       .  S
C1788      C1789   1.410       .  A
C1789      H1798   1.084       .  S
C1790      C1791   1.409       .  A
C1790      H1799   1.084       .  S
C1791      C1792   1.409       .  A
C1792      H1800   1.084       .  S
C1801      C1802   1.403       .  A
C1801      C1806   1.405       .  A
C1801      H1817   1.084       .  S
C1802      C1803   1.405       .  A
C1802      H1818   1.083       .  S
C1803      C1813   1.408       .  A
C1803      C1804   1.412       .  A
C1804      C1810   1.411       .  A
C1804      C1805   1.411       .  A
C1805      C1807   1.412       .  A
C1805      C1806   1.413       .  A
C1806      C1814   1.408       .  A
C1807      C1816   1.397       .  A
C1807      C1808   1.402       .  A
C1808      C1809   1.395       .  A
C1808      H1819   1.084       .  S
C1809      C1810   1.402       .  A
C1809      H1820   1.084       .  S
C1810      C1811   1.397       .  A
C1811      C1812   1.405       .  A
C1811      H1821   1.085       .  S
C1812      C1813   1.409       .  A
C1813      H1822   1.084       .  S
C1814      C1815   1.406       .  A
C1814      H1823   1.084       .  S
C1815      C1816   1.401       .  A
C1816      H1824   1.085       .  S
C1825      C1826   1.397       .  A
C1825      C1830   1.403       .  A
C1825      H1841   1.084       .  S
C1826      C1827   1.403       .  A
C1826      H1842   1.084       .  S
C1827      C1837   1.400       .  A
C1827      C1828   1.410       .  A
C1828      C1834   1.412       .  A
C1828      C1829   1.414       .  A
C1829      C1831   1.413       .  A
C1829      C1830   1.411       .  A
C1830      C1838   1.400       .  A
C1831      C1840   1.409       .  A
C1831      C1832   1.404       .  A
C1832      C1833   1.402       .  A
C1832      H1843   1.084       .  S
C1833      C1834   1.405       .  A
C1833      H1844   1.083       .  S
C1834      C1835   1.409       .  A
C1835      C1836   1.409       .  A
C1835      H1845   1.084       .  S
C1836      C1837   1.409       .  A
C1837      H1846   1.084       .  S
C1838      C1839   1.407       .  A
C1838      H1847   1.085       .  S
C1839      C1840   1.405       .  A
C1840      H1848   1.084       .  S
C1849      C1850   1.400       .  A
C1849      C1854   1.404       .  A
C1849      H1865   1.084       .  S
C1850      C1851   1.404       .  A
C1850      H1866   1.084       .  S
C1851      C1861   1.405       .  A
C1851      C1852   1.412       .  A
C1852      C1858   1.413       .  A
C1852      C1853   1.415       .  A
C1853      C1855   1.413       .  A
C1853      C1854   1.413       .  A
C1854      C1862   1.406       .  A
C1855      C1864   1.406       .  A
C1855      C1856   1.404       .  A
C1856      C1857   1.400       .  A
C1856      H1867   1.084       .  S
C1857      C1858   1.403       .  A
C1857      H1868   1.083       .  S
C1858      C1859   1.406       .  A
C1859      C1860   1.403       .  A
C1859      H1869   1.085       .  S
C1860      C1861   1.405       .  A
C1861      H1870   1.085       .  S
C1862      C1863   1.405       .  A
C1862      H1871   1.085       .  S
C1863      C1864   1.403       .  A
C1864      H1872   1.085       .  S
C1873      C1874   1.399       .  A
C1873      C1878   1.404       .  A
C1873      H1889   1.083       .  S
C1874      C1875   1.403       .  A
C1874      H1890   1.084       .  S
C1875      C1885   1.405       .  A
C1875      C1876   1.414       .  A
C1876      C1882   1.411       .  A
C1876      C1877   1.414       .  A
C1877      C1879   1.414       .  A
C1877      C1878   1.411       .  A
C1878      C1886   1.402       .  A
C1879      C1888   1.408       .  A
C1879      C1880   1.404       .  A
C1880      C1881   1.401       .  A
C1880      H1891   1.084       .  S
C1881      C1882   1.405       .  A
C1881      H1892   1.083       .  S
C1882      C1883   1.405       .  A
C1883      C1884   1.407       .  A
C1883      H1893   1.085       .  S
C1884      C1885   1.402       .  A
C1885      H1894   1.085       .  S
C1886      C1887   1.405       .  A
C1886      H1895   1.085       .  S
C1887      C1888   1.405       .  A
C1888      H1896   1.085       .  S
C1897      C1898   1.403   1_455  A
C1897      C1902   1.404       .  A
C1897      H1913   1.083       .  S
C1898      C1899   1.405       .  A
C1898      H1914   1.083       .  S
C1899      C1909   1.411       .  A
C1899      C1900   1.412       .  A
C1900      C1906   1.410       .  A
C1900      C1901   1.417   1_655  A
C1901      C1903   1.411       .  A
C1901      C1902   1.413       .  A
C1902      C1910   1.411       .  A
C1903      C1912   1.404       .  A
C1903      C1904   1.404       .  A
C1904      C1905   1.400   1_455  A
C1904      H1915   1.084       .  S
C1905      C1906   1.405       .  A
C1905      H1916   1.084       .  S
C1906      C1907   1.405       .  A
C1907      C1908   1.412       .  A
C1907      H1917   1.084       .  S
C1908      C1909   1.409       .  A
C1909      H1918   1.084       .  S
C1910      C1911   1.407       .  A
C1910      H1919   1.084       .  S
C1911      C1912   1.408       .  A
C1912      H1920   1.085       .  S
C1921      C1922   1.395       .  A
C1921      C1926   1.402       .  A
C1921      H1937   1.083       .  S
C1922      C1923   1.402       .  A
C1922      H1938   1.084       .  S
C1923      C1933   1.394       .  A
C1923      C1924   1.410       .  A
C1924      C1930   1.414       .  A
C1924      C1925   1.409       .  A
C1925      C1927   1.410       .  A
C1925      C1926   1.412       .  A
C1926      C1934   1.398       .  A
C1927      C1936   1.403       .  A
C1927      C1928   1.405       .  A
C1928      C1929   1.401       .  A
C1928      H1939   1.083       .  S
C1929      C1930   1.404       .  A
C1929      H1940   1.084       .  S
C1930      C1931   1.407       .  A
C1931      C1932   1.404       .  A
C1931      H1941   1.084       .  S
C1932      C1933   1.401       .  A
C1933      H1942   1.085       .  S
C1934      C1935   1.404       .  A
C1934      H1943   1.084       .  S
C1935      C1936   1.409       .  A
C1936      H1944   1.084       .  S
C1945      C1946   1.402       .  A
C1945      C1950   1.405       .  A
C1945      H1961   1.084       .  S
C1946      C1947   1.405       .  A
C1946      H1962   1.084       .  S
C1947      C1957   1.411       .  A
C1947      C1948   1.414       .  A
C1948      C1954   1.411       .  A
C1948      C1949   1.418       .  A
C1949      C1951   1.415       .  A
C1949      C1950   1.410       .  A
C1950      C1958   1.406       .  A
C1951      C1960   1.410       .  A
C1951      C1952   1.404       .  A
C1952      C1953   1.401       .  A
C1952      H1963   1.083       .  S
C1953      C1954   1.405       .  A
C1953      H1964   1.083       .  S
C1954      C1955   1.407       .  A
C1955      C1956   1.407       .  A
C1955      H1965   1.085       .  S
C1956      C1957   1.407       .  A
C1957      H1966   1.085       .  S
C1958      C1959   1.410       .  A
C1958      H1967   1.084       .  S
C1959      C1960   1.405       .  A
C1960      H1968   1.084       .  S
C1969      C1970   1.399       .  A
C1969      C1974   1.403       .  A
C1969      H1985   1.083       .  S
C1970      C1971   1.403       .  A
C1970      H1986   1.084       .  S
C1971      C1981   1.405       .  A
C1971      C1972   1.413       .  A
C1972      C1978   1.413       .  A
C1972      C1973   1.414       .  A
C1973      C1975   1.412       .  A
C1973      C1974   1.413       .  A
C1974      C1982   1.404       .  A
C1975      C1984   1.406       .  A
C1975      C1976   1.404       .  A
C1976      C1977   1.400       .  A
C1976      H1987   1.084       .  S
C1977      C1978   1.404       .  A
C1977      H1988   1.083       .  S
C1978      C1979   1.405       .  A
C1979      C1980   1.404       .  A
C1979      H1989   1.085       .  S
C1980      C1981   1.404       .  A
C1981      H1990   1.085       .  S
C1982      C1983   1.402       .  A
C1982      H1991   1.085       .  S
C1983      C1984   1.407       .  A
C1984      H1992   1.085       .  S
C1993      C1994   1.407   1_655  A
C1993      C1998   1.407       .  A
C1993      H2009   1.083       .  S
C1994      C1995   1.407       .  A
C1994      H2010   1.083       .  S
C1995      C2005   1.417       .  A
C1995      C1996   1.413       .  A
C1996      C2002   1.410       .  A
C1996      C1997   1.419   1_455  A
C1997      C1999   1.411       .  A
C1997      C1998   1.412       .  A
C1998      C2006   1.416       .  A
C1999      C2008   1.404       .  A
C1999      C2000   1.403       .  A
C2000      C2001   1.398   1_655  A
C2000      H2011   1.084       .  S
C2001      C2002   1.403       .  A
C2001      H2012   1.084       .  S
C2002      C2003   1.403       .  A
C2003      C2004   1.411       .  A
C2003      H2013   1.084       .  S
C2004      C2005   1.413       .  A
C2005      H2014   1.084       .  S
C2006      C2007   1.412       .  A
C2006      H2015   1.084       .  S
C2007      C2008   1.407       .  A
C2008      H2016   1.085       .  S
C2017      C2018   1.399       .  A
C2017      C2022   1.404       .  A
C2017      H2033   1.084       .  S
C2018      C2019   1.404       .  A
C2018      H2034   1.084       .  S
C2019      C2029   1.402       .  A
C2019      C2020   1.411       .  A
C2020      C2026   1.412       .  A
C2020      C2021   1.412       .  A
C2021      C2023   1.413       .  A
C2021      C2022   1.411       .  A
C2022      C2030   1.401       .  A
C2023      C2032   1.406       .  A
C2023      C2024   1.403       .  A
C2024      C2025   1.400       .  A
C2024      H2035   1.084       .  S
C2025      C2026   1.404       .  A
C2025      H2036   1.083       .  S
C2026      C2027   1.406       .  A
C2027      C2028   1.407       .  A
C2027      H2037   1.084       .  S
C2028      C2029   1.410       .  A
C2029      H2038   1.085       .  S
C2030      C2031   1.406       .  A
C2030      H2039   1.085       .  S
C2031      C2032   1.403       .  A
C2032      H2040   1.084       .  S
C2041      C2042   1.402       .  A
C2041      C2046   1.404       .  A
C2041      H2057   1.083       .  S
C2042      C2043   1.405       .  A
C2042      H2058   1.083       .  S
C2043      C2053   1.407       .  A
C2043      C2044   1.411       .  A
C2044      C2050   1.412       .  A
C2044      C2045   1.412       .  A
C2045      C2047   1.409       .  A
C2045      C2046   1.415       .  A
C2046      C2054   1.411       .  A
C2047      C2056   1.396       .  A
C2047      C2048   1.403       .  A
C2048      C2049   1.396       .  A
C2048      H2059   1.084       .  S
C2049      C2050   1.403       .  A
C2049      H2060   1.084       .  S
C2050      C2051   1.400       .  A
C2051      C2052   1.408       .  A
C2051      H2061   1.084       .  S
C2052      C2053   1.408       .  A
C2053      H2062   1.084       .  S
C2054      C2055   1.405       .  A
C2054      H2063   1.084       .  S
C2055      C2056   1.407       .  A
C2056      H2064   1.085       .  S
C2065      C2066   1.401       .  A
C2065      C2070   1.405       .  A
C2065      H2081   1.084       .  S
C2066      C2067   1.404       .  A
C2066      H2082   1.084       .  S
C2067      C2077   1.407       .  A
C2067      C2068   1.412       .  A
C2068      C2074   1.413       .  A
C2068      C2069   1.417       .  A
C2069      C2071   1.413       .  A
C2069      C2070   1.412       .  A
C2070      C2078   1.407       .  A
C2071      C2080   1.408       .  A
C2071      C2072   1.404       .  A
C2072      C2073   1.401       .  A
C2072      H2083   1.083       .  S
C2073      C2074   1.404       .  A
C2073      H2084   1.084       .  S
C2074      C2075   1.409       .  A
C2075      C2076   1.405       .  A
C2075      H2085   1.084       .  S
C2076      C2077   1.406       .  A
C2077      H2086   1.085       .  S
C2078      C2079   1.407       .  A
C2078      H2087   1.085       .  S
C2079      C2080   1.405       .  A
C2080      H2088   1.084       .  S
C2089      C2090   1.399       .  A
C2089      C2094   1.403       .  A
C2089      H2105   1.084       .  S
C2090      C2091   1.404       .  A
C2090      H2106   1.083       .  S
C2091      C2101   1.401       .  A
C2091      C2092   1.410       .  A
C2092      C2098   1.415       .  A
C2092      C2093   1.413       .  A
C2093      C2095   1.411       .  A
C2093      C2094   1.415       .  A
C2094      C2102   1.405       .  A
C2095      C2104   1.401       .  A
C2095      C2096   1.404       .  A
C2096      C2097   1.399       .  A
C2096      H2107   1.083       .  S
C2097      C2098   1.403       .  A
C2097      H2108   1.084       .  S
C2098      C2099   1.406       .  A
C2099      C2100   1.403       .  A
C2099      H2109   1.085       .  S
C2100      C2101   1.406       .  A
C2101      H2110   1.085       .  S
C2102      C2103   1.402       .  A
C2102      H2111   1.085       .  S
C2103      C2104   1.405       .  A
C2104      H2112   1.085       .  S
C2113      C2114   1.398       .  A
C2113      C2118   1.403       .  A
C2113      H2129   1.084       .  S
C2114      C2115   1.403       .  A
C2114      H2130   1.084       .  S
C2115      C2125   1.404       .  A
C2115      C2116   1.412       .  A
C2116      C2122   1.411       .  A
C2116      C2117   1.417       .  A
C2117      C2119   1.413       .  A
C2117      C2118   1.409       .  A
C2118      C2126   1.401       .  A
C2119      C2128   1.415       .  A
C2119      C2120   1.406       .  A
C2120      C2121   1.405       .  A
C2120      H2131   1.083       .  S
C2121      C2122   1.406       .  A
C2121      H2132   1.083       .  S
C2122      C2123   1.412       .  A
C2123      C2124   1.412       .  A
C2123      H2133   1.084       .  S
C2124      C2125   1.408       .  A
C2125      H2134   1.084       .  S
C2126      C2127   1.409       .  A
C2126      H2135   1.084       .  S
C2127      C2128   1.412       .  A
C2128      H2136   1.084       .  S
C2137      C2138   1.404       .  A
C2137      C2142   1.405       .  A
C2137      H2153   1.083       .  S
C2138      C2139   1.405       .  A
C2138      H2154   1.083       .  S
C2139      C2149   1.411       .  A
C2139      C2140   1.412       .  A
C2140      C2146   1.410       .  A
C2140      C2141   1.414       .  A
C2141      C2143   1.410       .  A
C2141      C2142   1.413       .  A
C2142      C2150   1.413       .  A
C2143      C2152   1.397       .  A
C2143      C2144   1.402       .  A
C2144      C2145   1.395       .  A
C2144      H2155   1.084       .  S
C2145      C2146   1.403       .  A
C2145      H2156   1.084       .  S
C2146      C2147   1.398       .  A
C2147      C2148   1.409       .  A
C2147      H2157   1.084       .  S
C2148      C2149   1.409       .  A
C2149      H2158   1.084       .  S
C2150      C2151   1.408       .  A
C2150      H2159   1.084       .  S
C2151      C2152   1.405       .  A
C2152      H2160   1.085       .  S
C2161      C2162   1.406       .  A
C2161      C2166   1.407       .  A
C2161      H2177   1.083       .  S
C2162      C2163   1.406       .  A
C2162      H2178   1.083       .  S
C2163      C2173   1.414       .  A
C2163      C2164   1.413       .  A
C2164      C2170   1.409       .  A
C2164      C2165   1.413       .  A
C2165      C2167   1.410       .  A
C2165      C2166   1.412       .  A
C2166      C2174   1.413       .  A
C2167      C2176   1.395       .  A
C2167      C2168   1.401       .  A
C2168      C2169   1.393       .  A
C2168      H2179   1.084       .  S
C2169      C2170   1.401       .  A
C2169      H2180   1.084       .  S
C2170      C2171   1.393       .  A
C2171      C2172   1.405       .  A
C2171      H2181   1.085       .  S
C2172      C2173   1.410       .  A
C2173      H2182   1.084       .  S
C2174      C2175   1.412       .  A
C2174      H2183   1.084       .  S
C2175      C2176   1.406       .  A
C2176      H2184   1.084       .  S
C2185      C2186   1.400       .  A
C2185      C2190   1.405       .  A
C2185      H2201   1.084       .  S
C2186      C2187   1.404       .  A
C2186      H2202   1.084       .  S
C2187      C2197   1.407       .  A
C2187      C2188   1.415       .  A
C2188      C2194   1.411       .  A
C2188      C2189   1.412       .  A
C2189      C2191   1.414       .  A
C2189      C2190   1.410       .  A
C2190      C2198   1.402       .  A
C2191      C2200   1.404       .  A
C2191      C2192   1.403       .  A
C2192      C2193   1.398       .  A
C2192      H2203   1.084       .  S
C2193      C2194   1.403       .  A
C2193      H2204   1.084       .  S
C2194      C2195   1.399       .  A
C2195      C2196   1.402       .  A
C2195      H2205   1.085       .  S
C2196      C2197   1.403       .  A
C2197      H2206   1.085       .  S
C2198      C2199   1.409       .  A
C2198      H2207   1.084       .  S
C2199      C2200   1.405       .  A
C2200      H2208   1.084       .  S
C2209      C2210   1.406   1_545  A
C2209      C2214   1.406       .  A
C2209      H2225   1.083       .  S
C2210      C2211   1.406       .  A
C2210      H2226   1.083       .  S
C2211      C2221   1.413       .  A
C2211      C2212   1.412       .  A
C2212      C2218   1.410       .  A
C2212      C2213   1.414   1_565  A
C2213      C2215   1.410       .  A
C2213      C2214   1.412       .  A
C2214      C2222   1.414       .  A
C2215      C2224   1.397       .  A
C2215      C2216   1.402       .  A
C2216      C2217   1.394   1_545  A
C2216      H2227   1.084       .  S
C2217      C2218   1.401       .  A
C2217      H2228   1.084       .  S
C2218      C2219   1.396       .  A
C2219      C2220   1.406       .  A
C2219      H2229   1.085       .  S
C2220      C2221   1.411       .  A
C2221      H2230   1.084       .  S
C2222      C2223   1.412       .  A
C2222      H2231   1.084       .  S
C2223      C2224   1.407       .  A
C2224      H2232   1.084       .  S
C2233      C2234   1.400       .  A
C2233      C2238   1.404       .  A
C2233      H2249   1.083       .  S
C2234      C2235   1.404       .  A
C2234      H2250   1.084       .  S
C2235      C2245   1.406       .  A
C2235      C2236   1.413       .  A
C2236      C2242   1.412       .  A
C2236      C2237   1.415       .  A
C2237      C2239   1.413       .  A
C2237      C2238   1.412       .  A
C2238      C2246   1.405       .  A
C2239      C2248   1.406       .  A
C2239      C2240   1.404       .  A
C2240      C2241   1.400       .  A
C2240      H2251   1.084       .  S
C2241      C2242   1.404       .  A
C2241      H2252   1.084       .  S
C2242      C2243   1.405       .  A
C2243      C2244   1.404       .  A
C2243      H2253   1.085       .  S
C2244      C2245   1.404       .  A
C2245      H2254   1.085       .  S
C2246      C2247   1.404       .  A
C2246      H2255   1.085       .  S
C2247      C2248   1.405       .  A
C2248      H2256   1.085       .  S
C2257      C2258   1.397       .  A
C2257      C2262   1.403       .  A
C2257      H2273   1.084       .  S
C2258      C2259   1.402       .  A
C2258      H2274   1.084       .  S
C2259      C2269   1.403       .  A
C2259      C2260   1.414       .  A
C2260      C2266   1.411       .  A
C2260      C2261   1.414       .  A
C2261      C2263   1.414       .  A
C2261      C2262   1.411       .  A
C2262      C2270   1.400       .  A
C2263      C2272   1.410       .  A
C2263      C2264   1.404       .  A
C2264      C2265   1.402       .  A
C2264      H2275   1.084       .  S
C2265      C2266   1.405       .  A
C2265      H2276   1.083       .  S
C2266      C2267   1.407       .  A
C2267      C2268   1.408       .  A
C2267      H2277   1.084       .  S
C2268      C2269   1.401       .  A
C2269      H2278   1.085       .  S
C2270      C2271   1.404       .  A
C2270      H2279   1.085       .  S
C2271      C2272   1.406       .  A
C2272      H2280   1.085       .  S
C2281      C2282   1.407   1_655  A
C2281      C2286   1.407       .  A
C2281      H2297   1.083       .  S
C2282      C2283   1.407       .  A
C2282      H2298   1.083       .  S
C2283      C2293   1.417       .  A
C2283      C2284   1.412       .  A
C2284      C2290   1.410       .  A
C2284      C2285   1.419   1_455  A
C2285      C2287   1.410       .  A
C2285      C2286   1.413       .  A
C2286      C2294   1.419       .  A
C2287      C2296   1.402       .  A
C2287      C2288   1.403       .  A
C2288      C2289   1.397   1_655  A
C2288      H2299   1.084       .  S
C2289      C2290   1.403       .  A
C2289      H2300   1.084       .  S
C2290      C2291   1.402       .  A
C2291      C2292   1.410       .  A
C2291      H2301   1.084       .  S
C2292      C2293   1.413       .  A
C2293      H2302   1.084       .  S
C2294      C2295   1.413       .  A
C2294      H2303   1.084       .  S
C2295      C2296   1.408       .  A
C2296      H2304   1.085       .  S
C2305      C2306   1.404   1_565  A
C2305      C2310   1.405       .  A
C2305      H2321   1.083       .  S
C2306      C2307   1.405       .  A
C2306      H2322   1.083       .  S
C2307      C2317   1.413       .  A
C2307      C2308   1.413       .  A
C2308      C2314   1.409       .  A
C2308      C2309   1.415   1_545  A
C2309      C2311   1.412       .  A
C2309      C2310   1.411       .  A
C2310      C2318   1.410       .  A
C2311      C2320   1.401       .  A
C2311      C2312   1.402       .  A
C2312      C2313   1.397   1_565  A
C2312      H2323   1.084       .  S
C2313      C2314   1.404       .  A
C2313      H2324   1.084       .  S
C2314      C2315   1.399       .  A
C2315      C2316   1.411       .  A
C2315      H2325   1.084       .  S
C2316      C2317   1.409       .  A
C2317      H2326   1.084       .  S
C2318      C2319   1.409       .  A
C2318      H2327   1.084       .  S
C2319      C2320   1.407       .  A
C2320      H2328   1.084       .  S
C2329      C2330   1.396       .  A
C2329      C2334   1.403       .  A
C2329      H2345   1.084       .  S
C2330      C2331   1.402       .  A
C2330      H2346   1.084       .  S
C2331      C2341   1.402       .  A
C2331      C2332   1.413       .  A
C2332      C2338   1.409       .  A
C2332      C2333   1.412       .  A
C2333      C2335   1.415       .  A
C2333      C2334   1.409       .  A
C2334      C2342   1.396       .  A
C2335      C2344   1.409       .  A
C2335      C2336   1.404       .  A
C2336      C2337   1.401       .  A
C2336      H2347   1.084       .  S
C2337      C2338   1.405       .  A
C2337      H2348   1.083       .  S
C2338      C2339   1.404       .  A
C2339      C2340   1.411       .  A
C2339      H2349   1.084       .  S
C2340      C2341   1.405       .  A
C2341      H2350   1.084       .  S
C2342      C2343   1.404       .  A
C2342      H2351   1.085       .  S
C2343      C2344   1.404       .  A
C2344      H2352   1.084       .  S
C2353      C2354   1.402       .  A
C2353      C2358   1.404       .  A
C2353      H2369   1.084       .  S
C2354      C2355   1.405       .  A
C2354      H2370   1.083       .  S
C2355      C2365   1.408       .  A
C2355      C2356   1.411       .  A
C2356      C2362   1.414       .  A
C2356      C2357   1.417       .  A
C2357      C2359   1.411       .  A
C2357      C2358   1.414       .  A
C2358      C2366   1.410       .  A
C2359      C2368   1.405       .  A
C2359      C2360   1.404       .  A
C2360      C2361   1.401       .  A
C2360      H2371   1.083       .  S
C2361      C2362   1.404       .  A
C2361      H2372   1.084       .  S
C2362      C2363   1.410       .  A
C2363      C2364   1.406       .  A
C2363      H2373   1.085       .  S
C2364      C2365   1.409       .  A
C2365      H2374   1.084       .  S
C2366      C2367   1.405       .  A
C2366      H2375   1.085       .  S
C2367      C2368   1.406       .  A
C2368      H2376   1.085       .  S
C2377      C2378   1.405       .  A
C2377      C2382   1.406       .  A
C2377      H2393   1.083       .  S
C2378      C2379   1.406       .  A
C2378      H2394   1.083       .  S
C2379      C2389   1.413       .  A
C2379      C2380   1.413       .  A
C2380      C2386   1.411       .  A
C2380      C2381   1.417       .  A
C2381      C2383   1.411       .  A
C2381      C2382   1.412       .  A
C2382      C2390   1.413       .  A
C2383      C2392   1.402       .  A
C2383      C2384   1.403       .  A
C2384      C2385   1.397       .  A
C2384      H2395   1.084       .  S
C2385      C2386   1.402       .  A
C2385      H2396   1.084       .  S
C2386      C2387   1.400       .  A
C2387      C2388   1.406       .  A
C2387      H2397   1.085       .  S
C2388      C2389   1.410       .  A
C2389      H2398   1.084       .  S
C2390      C2391   1.413       .  A
C2390      H2399   1.084       .  S
C2391      C2392   1.409       .  A
C2392      H2400   1.084       .  S
C2401      C2402   1.399       .  A
C2401      C2406   1.403       .  A
C2401      H2417   1.084       .  S
C2402      C2403   1.404       .  A
C2402      H2418   1.084       .  S
C2403      C2413   1.399       .  A
C2403      C2404   1.410       .  A
C2404      C2410   1.413       .  A
C2404      C2405   1.410       .  A
C2405      C2407   1.411       .  A
C2405      C2406   1.414       .  A
C2406      C2414   1.405       .  A
C2407      C2416   1.399       .  A
C2407      C2408   1.404       .  A
C2408      C2409   1.398       .  A
C2408      H2419   1.084       .  S
C2409      C2410   1.402       .  A
C2409      H2420   1.084       .  S
C2410      C2411   1.401       .  A
C2411      C2412   1.404       .  A
C2411      H2421   1.085       .  S
C2412      C2413   1.407       .  A
C2413      H2422   1.084       .  S
C2414      C2415   1.403       .  A
C2414      H2423   1.085       .  S
C2415      C2416   1.404       .  A
C2416      H2424   1.085       .  S
C2425      C2426   1.400       .  A
C2425      C2430   1.404       .  A
C2425      H2441   1.084       .  S
C2426      C2427   1.404       .  A
C2426      H2442   1.084       .  S
C2427      C2437   1.407       .  A
C2427      C2428   1.413       .  A
C2428      C2434   1.413       .  A
C2428      C2429   1.418       .  A
C2429      C2431   1.413       .  A
C2429      C2430   1.412       .  A
C2430      C2438   1.406       .  A
C2431      C2440   1.412       .  A
C2431      C2432   1.405       .  A
C2432      C2433   1.403       .  A
C2432      H2443   1.083       .  S
C2433      C2434   1.405       .  A
C2433      H2444   1.083       .  S
C2434      C2435   1.411       .  A
C2435      C2436   1.407       .  A
C2435      H2445   1.084       .  S
C2436      C2437   1.406       .  A
C2437      H2446   1.085       .  S
C2438      C2439   1.406       .  A
C2438      H2447   1.085       .  S
C2439      C2440   1.408       .  A
C2440      H2448   1.084       .  S
C2449      C2450   1.395       .  A
C2449      C2454   1.402       .  A
C2449      H2465   1.084       .  S
C2450      C2451   1.402       .  A
C2450      H2466   1.084       .  S
C2451      C2461   1.395       .  A
C2451      C2452   1.410       .  A
C2452      C2458   1.412       .  A
C2452      C2453   1.411       .  A
C2453      C2455   1.413       .  A
C2453      C2454   1.411       .  A
C2454      C2462   1.397       .  A
C2455      C2464   1.408       .  A
C2455      C2456   1.404       .  A
C2456      C2457   1.402       .  A
C2456      H2467   1.084       .  S
C2457      C2458   1.404       .  A
C2457      H2468   1.083       .  S
C2458      C2459   1.407       .  A
C2459      C2460   1.407       .  A
C2459      H2469   1.084       .  S
C2460      C2461   1.407       .  A
C2461      H2470   1.084       .  S
C2462      C2463   1.406       .  A
C2462      H2471   1.085       .  S
C2463      C2464   1.405       .  A
C2464      H2472   1.084       .  S
C2473      C2474   1.405   1_455  A
C2473      C2478   1.406       .  A
C2473      H2489   1.083       .  S
C2474      C2475   1.406       .  A
C2474      H2490   1.083       .  S
C2475      C2485   1.412       .  A
C2475      C2476   1.413       .  A
C2476      C2482   1.410       .  A
C2476      C2477   1.415   1_655  A
C2477      C2479   1.410       .  A
C2477      C2478   1.412       .  A
C2478      C2486   1.412       .  A
C2479      C2488   1.399       .  A
C2479      C2480   1.403       .  A
C2480      C2481   1.396   1_455  A
C2480      H2491   1.084       .  S
C2481      C2482   1.402       .  A
C2481      H2492   1.084       .  S
C2482      C2483   1.398       .  A
C2483      C2484   1.407       .  A
C2483      H2493   1.085       .  S
C2484      C2485   1.409       .  A
C2485      H2494   1.084       .  S
C2486      C2487   1.411       .  A
C2486      H2495   1.084       .  S
C2487      C2488   1.409       .  A
C2488      H2496   1.084       .  S
C2497      C2498   1.397       .  A
C2497      C2502   1.403       .  A
C2497      H2513   1.084       .  S
C2498      C2499   1.403       .  A
C2498      H2514   1.084       .  S
C2499      C2509   1.400       .  A
C2499      C2500   1.411       .  A
C2500      C2506   1.412       .  A
C2500      C2501   1.411       .  A
C2501      C2503   1.414       .  A
C2501      C2502   1.411       .  A
C2502      C2510   1.398       .  A
C2503      C2512   1.406       .  A
C2503      C2504   1.403       .  A
C2504      C2505   1.400       .  A
C2504      H2515   1.084       .  S
C2505      C2506   1.404       .  A
C2505      H2516   1.083       .  S
C2506      C2507   1.405       .  A
C2507      C2508   1.407       .  A
C2507      H2517   1.084       .  S
C2508      C2509   1.407       .  A
C2509      H2518   1.085       .  S
C2510      C2511   1.404       .  A
C2510      H2519   1.085       .  S
C2511      C2512   1.402       .  A
C2512      H2520   1.084       .  S
C2521      C2522   1.397       .  A
C2521      C2526   1.403       .  A
C2521      H2537   1.084       .  S
C2522      C2523   1.403       .  A
C2522      H2538   1.084       .  S
C2523      C2533   1.398       .  A
C2523      C2524   1.411       .  A
C2524      C2530   1.414       .  A
C2524      C2525   1.410       .  A
C2525      C2527   1.411       .  A
C2525      C2526   1.412       .  A
C2526      C2534   1.400       .  A
C2527      C2536   1.402       .  A
C2527      C2528   1.404       .  A
C2528      C2529   1.399       .  A
C2528      H2539   1.083       .  S
C2529      C2530   1.403       .  A
C2529      H2540   1.084       .  S
C2530      C2531   1.405       .  A
C2531      C2532   1.402       .  A
C2531      H2541   1.085       .  S
C2532      C2533   1.404       .  A
C2533      H2542   1.085       .  S
C2534      C2535   1.406       .  A
C2534      H2543   1.084       .  S
C2535      C2536   1.408       .  A
C2536      H2544   1.084       .  S
C2545      C2546   1.401       .  A
C2545      C2550   1.404       .  A
C2545      H2561   1.084       .  S
C2546      C2547   1.404       .  A
C2546      H2562   1.084       .  S
C2547      C2557   1.405       .  A
C2547      C2548   1.411       .  A
C2548      C2554   1.415       .  A
C2548      C2549   1.416       .  A
C2549      C2551   1.410       .  A
C2549      C2550   1.415       .  A
C2550      C2558   1.410       .  A
C2551      C2560   1.403       .  A
C2551      C2552   1.405       .  A
C2552      C2553   1.400       .  A
C2552      H2563   1.084       .  S
C2553      C2554   1.403       .  A
C2553      H2564   1.084       .  S
C2554      C2555   1.408       .  A
C2555      C2556   1.405       .  A
C2555      H2565   1.085       .  S
C2556      C2557   1.407       .  A
C2557      H2566   1.085       .  S
C2558      C2559   1.406       .  A
C2558      H2567   1.084       .  S
C2559      C2560   1.409       .  A
C2560      H2568   1.085       .  S
C2569      C2570   1.399       .  A
C2569      C2574   1.403       .  A
C2569      H2585   1.083       .  S
C2570      C2571   1.403       .  A
C2570      H2586   1.084       .  S
C2571      C2581   1.403       .  A
C2571      C2572   1.413       .  A
C2572      C2578   1.413       .  A
C2572      C2573   1.414       .  A
C2573      C2575   1.412       .  A
C2573      C2574   1.413       .  A
C2574      C2582   1.404       .  A
C2575      C2584   1.405       .  A
C2575      C2576   1.404       .  A
C2576      C2577   1.400       .  A
C2576      H2587   1.084       .  S
C2577      C2578   1.404       .  A
C2577      H2588   1.083       .  S
C2578      C2579   1.406       .  A
C2579      C2580   1.405       .  A
C2579      H2589   1.085       .  S
C2580      C2581   1.401       .  A
C2581      H2590   1.085       .  S
C2582      C2583   1.403       .  A
C2582      H2591   1.085       .  S
C2583      C2584   1.405       .  A
C2584      H2592   1.085       .  S
C2593      C2594   1.400       .  A
C2593      C2598   1.404       .  A
C2593      H2609   1.084       .  S
C2594      C2595   1.404       .  A
C2594      H2610   1.084       .  S
C2595      C2605   1.406       .  A
C2595      C2596   1.411       .  A
C2596      C2602   1.411       .  A
C2596      C2597   1.417       .  A
C2597      C2599   1.414       .  A
C2597      C2598   1.411       .  A
C2598      C2606   1.403       .  A
C2599      C2608   1.412       .  A
C2599      C2600   1.404       .  A
C2600      C2601   1.403       .  A
C2600      H2611   1.083       .  S
C2601      C2602   1.405       .  A
C2601      H2612   1.083       .  S
C2602      C2603   1.410       .  A
C2603      C2604   1.410       .  A
C2603      H2613   1.084       .  S
C2604      C2605   1.411       .  A
C2605      H2614   1.084       .  S
C2606      C2607   1.407       .  A
C2606      H2615   1.085       .  S
C2607      C2608   1.406       .  A
C2608      H2616   1.084       .  S
C2617      C2618   1.400       .  A
C2617      C2622   1.404       .  A
C2617      H2633   1.084       .  S
C2618      C2619   1.403       .  A
C2618      H2634   1.084       .  S
C2619      C2629   1.406       .  A
C2619      C2620   1.414       .  A
C2620      C2626   1.412       .  A
C2620      C2621   1.414       .  A
C2621      C2623   1.412       .  A
C2621      C2622   1.411       .  A
C2622      C2630   1.404       .  A
C2623      C2632   1.406       .  A
C2623      C2624   1.404       .  A
C2624      C2625   1.400       .  A
C2624      H2635   1.083       .  S
C2625      C2626   1.404       .  A
C2625      H2636   1.084       .  S
C2626      C2627   1.404       .  A
C2627      C2628   1.406       .  A
C2627      H2637   1.085       .  S
C2628      C2629   1.403       .  A
C2629      H2638   1.085       .  S
C2630      C2631   1.408       .  A
C2630      H2639   1.084       .  S
C2631      C2632   1.408       .  A
C2632      H2640   1.084       .  S
C2641      C2642   1.402       .  A
C2641      C2646   1.404       .  A
C2641      H2657   1.083       .  S
C2642      C2643   1.405       .  A
C2642      H2658   1.083       .  S
C2643      C2653   1.408       .  A
C2643      C2644   1.412       .  A
C2644      C2650   1.411       .  A
C2644      C2645   1.414       .  A
C2645      C2647   1.411       .  A
C2645      C2646   1.413       .  A
C2646      C2654   1.409       .  A
C2647      C2656   1.401       .  A
C2647      C2648   1.403       .  A
C2648      C2649   1.398       .  A
C2648      H2659   1.084       .  S
C2649      C2650   1.404       .  A
C2649      H2660   1.084       .  S
C2650      C2651   1.402       .  A
C2651      C2652   1.409       .  A
C2651      H2661   1.084       .  S
C2652      C2653   1.409       .  A
C2653      H2662   1.084       .  S
C2654      C2655   1.406       .  A
C2654      H2663   1.084       .  S
C2655      C2656   1.406       .  A
C2656      H2664   1.085       .  S
C2665      C2666   1.396       .  A
C2665      C2670   1.402       .  A
C2665      H2681   1.084       .  S
C2666      C2667   1.402       .  A
C2666      H2682   1.084       .  S
C2667      C2677   1.399       .  A
C2667      C2668   1.412       .  A
C2668      C2674   1.411       .  A
C2668      C2669   1.409       .  A
C2669      C2671   1.414       .  A
C2669      C2670   1.410       .  A
C2670      C2678   1.396       .  A
C2671      C2680   1.406       .  A
C2671      C2672   1.403       .  A
C2672      C2673   1.399       .  A
C2672      H2683   1.084       .  S
C2673      C2674   1.404       .  A
C2673      H2684   1.084       .  S
C2674      C2675   1.401       .  A
C2675      C2676   1.407       .  A
C2675      H2685   1.084       .  S
C2676      C2677   1.405       .  A
C2677      H2686   1.085       .  S
C2678      C2679   1.403       .  A
C2678      H2687   1.085       .  S
C2679      C2680   1.403       .  A
C2680      H2688   1.084       .  S
C2689      C2690   1.403       .  A
C2689      C2694   1.406       .  A
C2689      H2705   1.083       .  S
C2690      C2691   1.405       .  A
C2690      H2706   1.084       .  S
C2691      C2701   1.410       .  A
C2691      C2692   1.415       .  A
C2692      C2698   1.410       .  A
C2692      C2693   1.411       .  A
C2693      C2695   1.412       .  A
C2693      C2694   1.411       .  A
C2694      C2702   1.408       .  A
C2695      C2704   1.397       .  A
C2695      C2696   1.402       .  A
C2696      C2697   1.395       .  A
C2696      H2707   1.084       .  S
C2697      C2698   1.402       .  A
C2697      H2708   1.084       .  S
C2698      C2699   1.394       .  A
C2699      C2700   1.403       .  A
C2699      H2709   1.085       .  S
C2700      C2701   1.405       .  A
C2701      H2710   1.084       .  S
C2702      C2703   1.410       .  A
C2702      H2711   1.084       .  S
C2703      C2704   1.405       .  A
C2704      H2712   1.084       .  S
C2713      C2714   1.398   1_554  A
C2713      C2718   1.403       .  A
C2713      H2729   1.084       .  S
C2714      C2715   1.404       .  A
C2714      H2730   1.084       .  S
C2715      C2725   1.403       .  A
C2715      C2716   1.410       .  A
C2716      C2722   1.413       .  A
C2716      C2717   1.418   1_556  A
C2717      C2719   1.412       .  A
C2717      C2718   1.411       .  A
C2718      C2726   1.403       .  A
C2719      C2728   1.413       .  A
C2719      C2720   1.406       .  A
C2720      C2721   1.405   1_554  A
C2720      H2731   1.083       .  S
C2721      C2722   1.406       .  A
C2721      H2732   1.083       .  S
C2722      C2723   1.416       .  A
C2723      C2724   1.411       .  A
C2723      H2733   1.084       .  S
C2724      C2725   1.410       .  A
C2725      H2734   1.085       .  S
C2726      C2727   1.410       .  A
C2726      H2735   1.084       .  S
C2727      C2728   1.412       .  A
C2728      H2736   1.084       .  S
C2737      C2738   1.403       .  A
C2737      C2742   1.404       .  A
C2737      H2753   1.083       .  S
C2738      C2739   1.405       .  A
C2738      H2754   1.084       .  S
C2739      C2749   1.412       .  A
C2739      C2740   1.414       .  A
C2740      C2746   1.412       .  A
C2740      C2741   1.418       .  A
C2741      C2743   1.412       .  A
C2741      C2742   1.413       .  A
C2742      C2750   1.409       .  A
C2743      C2752   1.407       .  A
C2743      C2744   1.404       .  A
C2744      C2745   1.401       .  A
C2744      H2755   1.084       .  S
C2745      C2746   1.405       .  A
C2745      H2756   1.084       .  S
C2746      C2747   1.407       .  A
C2747      C2748   1.407       .  A
C2747      H2757   1.085       .  S
C2748      C2749   1.407       .  A
C2749      H2758   1.084       .  S
C2750      C2751   1.405       .  A
C2750      H2759   1.084       .  S
C2751      C2752   1.406       .  A
C2752      H2760   1.085       .  S
C2761      C2762   1.402       .  A
C2761      C2766   1.405       .  A
C2761      H2777   1.084       .  S
C2762      C2763   1.405       .  A
C2762      H2778   1.083       .  S
C2763      C2773   1.408       .  A
C2763      C2764   1.411       .  A
C2764      C2770   1.414       .  A
C2764      C2765   1.417       .  A
C2765      C2767   1.410       .  A
C2765      C2766   1.415       .  A
C2766      C2774   1.412       .  A
C2767      C2776   1.403       .  A
C2767      C2768   1.404       .  A
C2768      C2769   1.400       .  A
C2768      H2779   1.084       .  S
C2769      C2770   1.404       .  A
C2769      H2780   1.083       .  S
C2770      C2771   1.409       .  A
C2771      C2772   1.404       .  A
C2771      H2781   1.084       .  S
C2772      C2773   1.409       .  A
C2773      H2782   1.085       .  S
C2774      C2775   1.407       .  A
C2774      H2783   1.085       .  S
C2775      C2776   1.406       .  A
C2776      H2784   1.085       .  S
C2785      C2786   1.407   1_556  A
C2785      C2790   1.407       .  A
C2785      H2801   1.083       .  S
C2786      C2787   1.407       .  A
C2786      H2802   1.083       .  S
C2787      C2797   1.415       .  A
C2787      C2788   1.412       .  A
C2788      C2794   1.412       .  A
C2788      C2789   1.418   1_554  A
C2789      C2791   1.410       .  A
C2789      C2790   1.412       .  A
C2790      C2798   1.416       .  A
C2791      C2800   1.403       .  A
C2791      C2792   1.403       .  A
C2792      C2793   1.397   1_556  A
C2792      H2803   1.084       .  S
C2793      C2794   1.402       .  A
C2793      H2804   1.084       .  S
C2794      C2795   1.403       .  A
C2795      C2796   1.405       .  A
C2795      H2805   1.085       .  S
C2796      C2797   1.411       .  A
C2797      H2806   1.084       .  S
C2798      C2799   1.414       .  A
C2798      H2807   1.084       .  S
C2799      C2800   1.409       .  A
C2800      H2808   1.084       .  S
C2809      C2810   1.404       .  A
C2809      C2814   1.405       .  A
C2809      H2825   1.084       .  S
C2810      C2811   1.406       .  A
C2810      H2826   1.083       .  S
C2811      C2821   1.409       .  A
C2811      C2812   1.411       .  A
C2812      C2818   1.414       .  A
C2812      C2813   1.416       .  A
C2813      C2815   1.411       .  A
C2813      C2814   1.414       .  A
C2814      C2822   1.412       .  A
C2815      C2824   1.400       .  A
C2815      C2816   1.403       .  A
C2816      C2817   1.398       .  A
C2816      H2827   1.084       .  S
C2817      C2818   1.402       .  A
C2817      H2828   1.084       .  S
C2818      C2819   1.404       .  A
C2819      C2820   1.402       .  A
C2819      H2829   1.085       .  S
C2820      C2821   1.409       .  A
C2821      H2830   1.084       .  S
C2822      C2823   1.407       .  A
C2822      H2831   1.084       .  S
C2823      C2824   1.405       .  A
C2824      H2832   1.085       .  S
C2833      C2834   1.400       .  A
C2833      C2838   1.404       .  A
C2833      H2849   1.084       .  S
C2834      C2835   1.404       .  A
C2834      H2850   1.083       .  S
C2835      C2845   1.406       .  A
C2835      C2836   1.413       .  A
C2836      C2842   1.412       .  A
C2836      C2837   1.414       .  A
C2837      C2839   1.413       .  A
C2837      C2838   1.413       .  A
C2838      C2846   1.406       .  A
C2839      C2848   1.404       .  A
C2839      C2840   1.404       .  A
C2840      C2841   1.399       .  A
C2840      H2851   1.084       .  S
C2841      C2842   1.403       .  A
C2841      H2852   1.084       .  S
C2842      C2843   1.403       .  A
C2843      C2844   1.404       .  A
C2843      H2853   1.085       .  S
C2844      C2845   1.404       .  A
C2845      H2854   1.085       .  S
C2846      C2847   1.403       .  A
C2846      H2855   1.085       .  S
C2847      C2848   1.404       .  A
C2848      H2856   1.085       .  S
C2857      C2858   1.395       .  A
C2857      C2862   1.402       .  A
C2857      H2873   1.084       .  S
C2858      C2859   1.402       .  A
C2858      H2874   1.084       .  S
C2859      C2869   1.400       .  A
C2859      C2860   1.412       .  A
C2860      C2866   1.410       .  A
C2860      C2861   1.414       .  A
C2861      C2863   1.415       .  A
C2861      C2862   1.409       .  A
C2862      C2870   1.396       .  A
C2863      C2872   1.414       .  A
C2863      C2864   1.406       .  A
C2864      C2865   1.405       .  A
C2864      H2875   1.083       .  S
C2865      C2866   1.406       .  A
C2865      H2876   1.083       .  S
C2866      C2867   1.410       .  A
C2867      C2868   1.412       .  A
C2867      H2877   1.084       .  S
C2868      C2869   1.406       .  A
C2869      H2878   1.084       .  S
C2870      C2871   1.404       .  A
C2870      H2879   1.085       .  S
C2871      C2872   1.408       .  A
C2872      H2880   1.084       .  S
C2881      C2882   1.398       .  A
C2881      C2886   1.403       .  A
C2881      H2897   1.084       .  S
C2882      C2883   1.403       .  A
C2882      H2898   1.084       .  S
C2883      C2893   1.402       .  A
C2883      C2884   1.412       .  A
C2884      C2890   1.413       .  A
C2884      C2885   1.415       .  A
C2885      C2887   1.413       .  A
C2885      C2886   1.412       .  A
C2886      C2894   1.401       .  A
C2887      C2896   1.409       .  A
C2887      C2888   1.405       .  A
C2888      C2889   1.403       .  A
C2888      H2899   1.084       .  S
C2889      C2890   1.405       .  A
C2889      H2900   1.083       .  S
C2890      C2891   1.410       .  A
C2891      C2892   1.406       .  A
C2891      H2901   1.084       .  S
C2892      C2893   1.404       .  A
C2893      H2902   1.085       .  S
C2894      C2895   1.402       .  A
C2894      H2903   1.085       .  S
C2895      C2896   1.406       .  A
C2896      H2904   1.085       .  S
C2905      C2906   1.398       .  A
C2905      C2910   1.404       .  A
C2905      H2921   1.084       .  S
C2906      C2907   1.403       .  A
C2906      H2922   1.084       .  S
C2907      C2917   1.402       .  A
C2907      C2908   1.412       .  A
C2908      C2914   1.411       .  A
C2908      C2909   1.414       .  A
C2909      C2911   1.415       .  A
C2909      C2910   1.410       .  A
C2910      C2918   1.400       .  A
C2911      C2920   1.410       .  A
C2911      C2912   1.404       .  A
C2912      C2913   1.402       .  A
C2912      H2923   1.084       .  S
C2913      C2914   1.405       .  A
C2913      H2924   1.083       .  S
C2914      C2915   1.406       .  A
C2915      C2916   1.409       .  A
C2915      H2925   1.084       .  S
C2916      C2917   1.407       .  A
C2917      H2926   1.084       .  S
C2918      C2919   1.407       .  A
C2918      H2927   1.085       .  S
C2919      C2920   1.405       .  A
C2920      H2928   1.084       .  S
C2929      C2930   1.400       .  A
C2929      C2934   1.403       .  A
C2929      H2945   1.084       .  S
C2930      C2931   1.405       .  A
C2930      H2946   1.083       .  S
C2931      C2941   1.406       .  A
C2931      C2932   1.411       .  A
C2932      C2938   1.414       .  A
C2932      C2933   1.417       .  A
C2933      C2935   1.411       .  A
C2933      C2934   1.414       .  A
C2934      C2942   1.407       .  A
C2935      C2944   1.408       .  A
C2935      C2936   1.405       .  A
C2936      C2937   1.402       .  A
C2936      H2947   1.083       .  S
C2937      C2938   1.404       .  A
C2937      H2948   1.084       .  S
C2938      C2939   1.411       .  A
C2939      C2940   1.406       .  A
C2939      H2949   1.085       .  S
C2940      C2941   1.409       .  A
C2941      H2950   1.085       .  S
C2942      C2943   1.404       .  A
C2942      H2951   1.085       .  S
C2943      C2944   1.408       .  A
C2944      H2952   1.084       .  S
C2953      C2954   1.401       .  A
C2953      C2958   1.405       .  A
C2953      H2969   1.083       .  S
C2954      C2955   1.404       .  A
C2954      H2970   1.084       .  S
C2955      C2965   1.407       .  A
C2955      C2956   1.414       .  A
C2956      C2962   1.411       .  A
C2956      C2957   1.411       .  A
C2957      C2959   1.412       .  A
C2957      C2958   1.411       .  A
C2958      C2966   1.406       .  A
C2959      C2968   1.399       .  A
C2959      C2960   1.402       .  A
C2960      C2961   1.396       .  A
C2960      H2971   1.084       .  S
C2961      C2962   1.402       .  A
C2961      H2972   1.084       .  S
C2962      C2963   1.397       .  A
C2963      C2964   1.402       .  A
C2963      H2973   1.085       .  S
C2964      C2965   1.404       .  A
C2965      H2974   1.084       .  S
C2966      C2967   1.409       .  A
C2966      H2975   1.084       .  S
C2967      C2968   1.405       .  A
C2968      H2976   1.085       .  S
C2977      C2978   1.405       .  A
C2977      C2982   1.406       .  A
C2977      H2993   1.083       .  S
C2978      C2979   1.405       .  A
C2978      H2994   1.083       .  S
C2979      C2989   1.414       .  A
C2979      C2980   1.414       .  A
C2980      C2986   1.410       .  A
C2980      C2981   1.419       .  A
C2981      C2983   1.412       .  A
C2981      C2982   1.411       .  A
C2982      C2990   1.413       .  A
C2983      C2992   1.407       .  A
C2983      C2984   1.404       .  A
C2984      C2985   1.399       .  A
C2984      H2995   1.084       .  S
C2985      C2986   1.404       .  A
C2985      H2996   1.084       .  S
C2986      C2987   1.404       .  A
C2987      C2988   1.408       .  A
C2987      H2997   1.085       .  S
C2988      C2989   1.409       .  A
C2989      H2998   1.084       .  S
C2990      C2991   1.413       .  A
C2990      H2999   1.084       .  S
C2991      C2992   1.410       .  A
C2992      H3000   1.084       .  S
C3001      C3002   1.396       .  A
C3001      C3006   1.402       .  A
C3001      H3017   1.084       .  S
C3002      C3003   1.403       .  A
C3002      H3018   1.084       .  S
C3003      C3013   1.396       .  A
C3003      C3004   1.409       .  A
C3004      C3010   1.413       .  A
C3004      C3005   1.413       .  A
C3005      C3007   1.411       .  A
C3005      C3006   1.411       .  A
C3006      C3014   1.399       .  A
C3007      C3016   1.409       .  A
C3007      C3008   1.405       .  A
C3008      C3009   1.403       .  A
C3008      H3019   1.083       .  S
C3009      C3010   1.405       .  A
C3009      H3020   1.083       .  S
C3010      C3011   1.411       .  A
C3011      C3012   1.408       .  A
C3011      H3021   1.084       .  S
C3012      C3013   1.408       .  A
C3013      H3022   1.085       .  S
C3014      C3015   1.408       .  A
C3014      H3023   1.084       .  S
C3015      C3016   1.409       .  A
C3016      H3024   1.084       .  S
C3025      C3026   1.397       .  A
C3025      C3030   1.403       .  A
C3025      H3041   1.084       .  S
C3026      C3027   1.403       .  A
C3026      H3042   1.084       .  S
C3027      C3037   1.400       .  A
C3027      C3028   1.410       .  A
C3028      C3034   1.414       .  A
C3028      C3029   1.418       .  A
C3029      C3031   1.411       .  A
C3029      C3030   1.411       .  A
C3030      C3038   1.403       .  A
C3031      C3040   1.414       .  A
C3031      C3032   1.407       .  A
C3032      C3033   1.406       .  A
C3032      H3043   1.083       .  S
C3033      C3034   1.406       .  A
C3033      H3044   1.083       .  S
C3034      C3035   1.417       .  A
C3035      C3036   1.410       .  A
C3035      H3045   1.084       .  S
C3036      C3037   1.406       .  A
C3037      H3046   1.085       .  S
C3038      C3039   1.408       .  A
C3038      H3047   1.084       .  S
C3039      C3040   1.413       .  A
C3040      H3048   1.084       .  S
C3049      C3050   1.398       .  A
C3049      C3054   1.404       .  A
C3049      H3065   1.084       .  S
C3050      C3051   1.403       .  A
C3050      H3066   1.084       .  S
C3051      C3061   1.405       .  A
C3051      C3052   1.415       .  A
C3052      C3058   1.410       .  A
C3052      C3053   1.410       .  A
C3053      C3055   1.414       .  A
C3053      C3054   1.410       .  A
C3054      C3062   1.399       .  A
C3055      C3064   1.403       .  A
C3055      C3056   1.403       .  A
C3056      C3057   1.398       .  A
C3056      H3067   1.084       .  S
C3057      C3058   1.404       .  A
C3057      H3068   1.084       .  S
C3058      C3059   1.399       .  A
C3059      C3060   1.404       .  A
C3059      H3069   1.085       .  S
C3060      C3061   1.401       .  A
C3061      H3070   1.085       .  S
C3062      C3063   1.407       .  A
C3062      H3071   1.084       .  S
C3063      C3064   1.405       .  A
C3064      H3072   1.084       .  S
C3073      C3074   1.395       .  A
C3073      C3078   1.402       .  A
C3073      H3089   1.084       .  S
C3074      C3075   1.402       .  A
C3074      H3090   1.084       .  S
C3075      C3085   1.396       .  A
C3075      C3076   1.410       .  A
C3076      C3082   1.414       .  A
C3076      C3077   1.414       .  A
C3077      C3079   1.411       .  A
C3077      C3078   1.412       .  A
C3078      C3086   1.399       .  A
C3079      C3088   1.411       .  A
C3079      C3080   1.406       .  A
C3080      C3081   1.405       .  A
C3080      H3091   1.084       .  S
C3081      C3082   1.406       .  A
C3081      H3092   1.083       .  S
C3082      C3083   1.413       .  A
C3083      C3084   1.408       .  A
C3083      H3093   1.084       .  S
C3084      C3085   1.403       .  A
C3085      H3094   1.085       .  S
C3086      C3087   1.406       .  A
C3086      H3095   1.084       .  S
C3087      C3088   1.412       .  A
C3088      H3096   1.084       .  S
C3097      C3098   1.400       .  A
C3097      C3102   1.404       .  A
C3097      H3113   1.083       .  S
C3098      C3099   1.403       .  A
C3098      H3114   1.084       .  S
C3099      C3109   1.407       .  A
C3099      C3100   1.415       .  A
C3100      C3106   1.409       .  A
C3100      C3101   1.411       .  A
C3101      C3103   1.412       .  A
C3101      C3102   1.410       .  A
C3102      C3110   1.402       .  A
C3103      C3112   1.401       .  A
C3103      C3104   1.403       .  A
C3104      C3105   1.397       .  A
C3104      H3115   1.084       .  S
C3105      C3106   1.403       .  A
C3105      H3116   1.084       .  S
C3106      C3107   1.396       .  A
C3107      C3108   1.406       .  A
C3107      H3117   1.085       .  S
C3108      C3109   1.402       .  A
C3109      H3118   1.084       .  S
C3110      C3111   1.408       .  A
C3110      H3119   1.084       .  S
C3111      C3112   1.407       .  A
C3112      H3120   1.084       .  S
C3121      C3122   1.397       .  A
C3121      C3126   1.403       .  A
C3121      H3137   1.084       .  S
C3122      C3123   1.403       .  A
C3122      H3138   1.084       .  S
C3123      C3133   1.400       .  A
C3123      C3124   1.412       .  A
C3124      C3130   1.411       .  A
C3124      C3125   1.412       .  A
C3125      C3127   1.414       .  A
C3125      C3126   1.411       .  A
C3126      C3134   1.398       .  A
C3127      C3136   1.407       .  A
C3127      C3128   1.404       .  A
C3128      C3129   1.401       .  A
C3128      H3139   1.084       .  S
C3129      C3130   1.405       .  A
C3129      H3140   1.083       .  S
C3130      C3131   1.406       .  A
C3131      C3132   1.409       .  A
C3131      H3141   1.084       .  S
C3132      C3133   1.407       .  A
C3133      H3142   1.084       .  S
C3134      C3135   1.403       .  A
C3134      H3143   1.085       .  S
C3135      C3136   1.404       .  A
C3136      H3144   1.084       .  S
C3145      C3146   1.405   1_455  A
C3145      C3150   1.406       .  A
C3145      H3161   1.083       .  S
C3146      C3147   1.406       .  A
C3146      H3162   1.083       .  S
C3147      C3157   1.416       .  A
C3147      C3148   1.414       .  A
C3148      C3154   1.408       .  A
C3148      C3149   1.417   1_655  A
C3149      C3151   1.412       .  A
C3149      C3150   1.411       .  A
C3150      C3158   1.412       .  A
C3151      C3160   1.404       .  A
C3151      C3152   1.403       .  A
C3152      C3153   1.397   1_455  A
C3152      H3163   1.084       .  S
C3153      C3154   1.403       .  A
C3153      H3164   1.084       .  S
C3154      C3155   1.399       .  A
C3155      C3156   1.411       .  A
C3155      H3165   1.084       .  S
C3156      C3157   1.411       .  A
C3157      H3166   1.084       .  S
C3158      C3159   1.411       .  A
C3158      H3167   1.084       .  S
C3159      C3160   1.407       .  A
C3160      H3168   1.085       .  S
C3169      C3170   1.399       .  A
C3169      C3174   1.404       .  A
C3169      H3185   1.084       .  S
C3170      C3171   1.403       .  A
C3170      H3186   1.084       .  S
C3171      C3181   1.405       .  A
C3171      C3172   1.414       .  A
C3172      C3178   1.411       .  A
C3172      C3173   1.414       .  A
C3173      C3175   1.414       .  A
C3173      C3174   1.411       .  A
C3174      C3182   1.402       .  A
C3175      C3184   1.407       .  A
C3175      C3176   1.404       .  A
C3176      C3177   1.400       .  A
C3176      H3187   1.084       .  S
C3177      C3178   1.404       .  A
C3177      H3188   1.083       .  S
C3178      C3179   1.404       .  A
C3179      C3180   1.405       .  A
C3179      H3189   1.085       .  S
C3180      C3181   1.403       .  A
C3181      H3190   1.085       .  S
C3182      C3183   1.407       .  A
C3182      H3191   1.085       .  S
C3183      C3184   1.404       .  A
C3184      H3192   1.085       .  S
C3193      C3194   1.402       .  A
C3193      C3198   1.405       .  A
C3193      H3209   1.084       .  S
C3194      C3195   1.404       .  A
C3194      H3210   1.083       .  S
C3195      C3205   1.407       .  A
C3195      C3196   1.413       .  A
C3196      C3202   1.412       .  A
C3196      C3197   1.414       .  A
C3197      C3199   1.412       .  A
C3197      C3198   1.414       .  A
C3198      C3206   1.409       .  A
C3199      C3208   1.400       .  A
C3199      C3200   1.403       .  A
C3200      C3201   1.397       .  A
C3200      H3211   1.084       .  S
C3201      C3202   1.403       .  A
C3201      H3212   1.084       .  S
C3202      C3203   1.402       .  A
C3203      C3204   1.404       .  A
C3203      H3213   1.085       .  S
C3204      C3205   1.404       .  A
C3205      H3214   1.084       .  S
C3206      C3207   1.405       .  A
C3206      H3215   1.085       .  S
C3207      C3208   1.402       .  A
C3208      H3216   1.085       .  S
C3217      C3218   1.396   1_556  A
C3217      C3222   1.402       .  A
C3217      H3233   1.084       .  S
C3218      C3219   1.402       .  A
C3218      H3234   1.084       .  S
C3219      C3229   1.398       .  A
C3219      C3220   1.410       .  A
C3220      C3226   1.412       .  A
C3220      C3221   1.414   1_554  A
C3221      C3223   1.412       .  A
C3221      C3222   1.411       .  A
C3222      C3230   1.399       .  A
C3223      C3232   1.410       .  A
C3223      C3224   1.405       .  A
C3224      C3225   1.403   1_556  A
C3224      H3235   1.083       .  S
C3225      C3226   1.405       .  A
C3225      H3236   1.083       .  S
C3226      C3227   1.411       .  A
C3227      C3228   1.410       .  A
C3227      H3237   1.084       .  S
C3228      C3229   1.408       .  A
C3229      H3238   1.084       .  S
C3230      C3231   1.405       .  A
C3230      H3239   1.085       .  S
C3231      C3232   1.408       .  A
C3232      H3240   1.084       .  S
C3241      C3242   1.404   1_655  A
C3241      C3246   1.406       .  A
C3241      H3257   1.083       .  S
C3242      C3243   1.406       .  A
C3242      H3258   1.083       .  S
C3243      C3253   1.412       .  A
C3243      C3244   1.412       .  A
C3244      C3250   1.410       .  A
C3244      C3245   1.414   1_455  A
C3245      C3247   1.411       .  A
C3245      C3246   1.413       .  A
C3246      C3254   1.412       .  A
C3247      C3256   1.398       .  A
C3247      C3248   1.402       .  A
C3248      C3249   1.396   1_655  A
C3248      H3259   1.084       .  S
C3249      C3250   1.403       .  A
C3249      H3260   1.084       .  S
C3250      C3251   1.398       .  A
C3251      C3252   1.408       .  A
C3251      H3261   1.084       .  S
C3252      C3253   1.410       .  A
C3253      H3262   1.084       .  S
C3254      C3255   1.409       .  A
C3254      H3263   1.084       .  S
C3255      C3256   1.404       .  A
C3256      H3264   1.085       .  S
C3265      C3266   1.401       .  A
C3265      C3270   1.404       .  A
C3265      H3281   1.083       .  S
C3266      C3267   1.404       .  A
C3266      H3282   1.084       .  S
C3267      C3277   1.407       .  A
C3267      C3268   1.413       .  A
C3268      C3274   1.412       .  A
C3268      C3269   1.415       .  A
C3269      C3271   1.412       .  A
C3269      C3270   1.413       .  A
C3270      C3278   1.408       .  A
C3271      C3280   1.406       .  A
C3271      C3272   1.405       .  A
C3272      C3273   1.400       .  A
C3272      H3283   1.084       .  S
C3273      C3274   1.404       .  A
C3273      H3284   1.084       .  S
C3274      C3275   1.404       .  A
C3275      C3276   1.404       .  A
C3275      H3285   1.085       .  S
C3276      C3277   1.403       .  A
C3277      H3286   1.085       .  S
C3278      C3279   1.405       .  A
C3278      H3287   1.084       .  S
C3279      C3280   1.407       .  A
C3280      H3288   1.085       .  S
C3289      C3290   1.401       .  A
C3289      C3294   1.405       .  A
C3289      H3305   1.084       .  S
C3290      C3291   1.404       .  A
C3290      H3306   1.084       .  S
C3291      C3301   1.408       .  A
C3291      C3292   1.413       .  A
C3292      C3298   1.411       .  A
C3292      C3293   1.415       .  A
C3293      C3295   1.414       .  A
C3293      C3294   1.411       .  A
C3294      C3302   1.405       .  A
C3295      C3304   1.407       .  A
C3295      C3296   1.403       .  A
C3296      C3297   1.400       .  A
C3296      H3307   1.084       .  S
C3297      C3298   1.404       .  A
C3297      H3308   1.083       .  S
C3298      C3299   1.405       .  A
C3299      C3300   1.406       .  A
C3299      H3309   1.085       .  S
C3300      C3301   1.405       .  A
C3301      H3310   1.085       .  S
C3302      C3303   1.408       .  A
C3302      H3311   1.085       .  S
C3303      C3304   1.403       .  A
C3304      H3312   1.085       .  S
C3313      C3314   1.401       .  A
C3313      C3318   1.404       .  A
C3313      H3329   1.084       .  S
C3314      C3315   1.404       .  A
C3314      H3330   1.083       .  S
C3315      C3325   1.405       .  A
C3315      C3316   1.411       .  A
C3316      C3322   1.412       .  A
C3316      C3317   1.412       .  A
C3317      C3319   1.410       .  A
C3317      C3318   1.414       .  A
C3318      C3326   1.408       .  A
C3319      C3328   1.399       .  A
C3319      C3320   1.404       .  A
C3320      C3321   1.398       .  A
C3320      H3331   1.084       .  S
C3321      C3322   1.403       .  A
C3321      H3332   1.084       .  S
C3322      C3323   1.401       .  A
C3323      C3324   1.408       .  A
C3323      H3333   1.084       .  S
C3324      C3325   1.408       .  A
C3325      H3334   1.084       .  S
C3326      C3327   1.404       .  A
C3326      H3335   1.084       .  S
C3327      C3328   1.406       .  A
C3328      H3336   1.085       .  S
C3337      C3338   1.404   1_556  A
C3337      C3342   1.406       .  A
C3337      H3353   1.083       .  S
C3338      C3339   1.405       .  A
C3338      H3354   1.083       .  S
C3339      C3349   1.412       .  A
C3339      C3340   1.412       .  A
C3340      C3346   1.410       .  A
C3340      C3341   1.416   1_554  A
C3341      C3343   1.410       .  A
C3341      C3342   1.412       .  A
C3342      C3350   1.413       .  A
C3343      C3352   1.402       .  A
C3343      C3344   1.403       .  A
C3344      C3345   1.397   1_556  A
C3344      H3355   1.084       .  S
C3345      C3346   1.403       .  A
C3345      H3356   1.084       .  S
C3346      C3347   1.401       .  A
C3347      C3348   1.409       .  A
C3347      H3357   1.084       .  S
C3348      C3349   1.409       .  A
C3349      H3358   1.084       .  S
C3350      C3351   1.412       .  A
C3350      H3359   1.084       .  S
C3351      C3352   1.409       .  A
C3352      H3360   1.084       .  S
C3361      C3362   1.397       .  A
C3361      C3366   1.402       .  A
C3361      H3377   1.084       .  S
C3362      C3363   1.403       .  A
C3362      H3378   1.084       .  S
C3363      C3373   1.400       .  A
C3363      C3364   1.412       .  A
C3364      C3370   1.411       .  A
C3364      C3365   1.410       .  A
C3365      C3367   1.414       .  A
C3365      C3366   1.411       .  A
C3366      C3374   1.397       .  A
C3367      C3376   1.405       .  A
C3367      C3368   1.403       .  A
C3368      C3369   1.399       .  A
C3368      H3379   1.084       .  S
C3369      C3370   1.404       .  A
C3369      H3380   1.083       .  S
C3370      C3371   1.402       .  A
C3371      C3372   1.408       .  A
C3371      H3381   1.084       .  S
C3372      C3373   1.405       .  A
C3373      H3382   1.084       .  S
C3374      C3375   1.402       .  A
C3374      H3383   1.085       .  S
C3375      C3376   1.402       .  A
C3376      H3384   1.085       .  S
C3385      C3386   1.401       .  A
C3385      C3390   1.405       .  A
C3385      H3401   1.083       .  S
C3386      C3387   1.403       .  A
C3386      H3402   1.084       .  S
C3387      C3397   1.410       .  A
C3387      C3388   1.415       .  A
C3388      C3394   1.409       .  A
C3388      C3389   1.415       .  A
C3389      C3391   1.413       .  A
C3389      C3390   1.410       .  A
C3390      C3398   1.405       .  A
C3391      C3400   1.408       .  A
C3391      C3392   1.404       .  A
C3392      C3393   1.401       .  A
C3392      H3403   1.084       .  S
C3393      C3394   1.405       .  A
C3393      H3404   1.083       .  S
C3394      C3395   1.403       .  A
C3395      C3396   1.408       .  A
C3395      H3405   1.085       .  S
C3396      C3397   1.404       .  A
C3397      H3406   1.084       .  S
C3398      C3399   1.409       .  A
C3398      H3407   1.084       .  S
C3399      C3400   1.410       .  A
C3400      H3408   1.084       .  S
C3409      C3410   1.402       .  A
C3409      C3414   1.405       .  A
C3409      H3425   1.084       .  S
C3410      C3411   1.405       .  A
C3410      H3426   1.084       .  S
C3411      C3421   1.409       .  A
C3411      C3412   1.412       .  A
C3412      C3418   1.413       .  A
C3412      C3413   1.419       .  A
C3413      C3415   1.413       .  A
C3413      C3414   1.412       .  A
C3414      C3422   1.408       .  A
C3415      C3424   1.410       .  A
C3415      C3416   1.405       .  A
C3416      C3417   1.402       .  A
C3416      H3427   1.084       .  S
C3417      C3418   1.405       .  A
C3417      H3428   1.083       .  S
C3418      C3419   1.411       .  A
C3419      C3420   1.407       .  A
C3419      H3429   1.084       .  S
C3420      C3421   1.407       .  A
C3421      H3430   1.085       .  S
C3422      C3423   1.407       .  A
C3422      H3431   1.085       .  S
C3423      C3424   1.406       .  A
C3424      H3432   1.085       .  S
C3433      C3434   1.400       .  A
C3433      C3438   1.403       .  A
C3433      H3449   1.084       .  S
C3434      C3435   1.404       .  A
C3434      H3450   1.083       .  S
C3435      C3445   1.404       .  A
C3435      C3436   1.411       .  A
C3436      C3442   1.414       .  A
C3436      C3437   1.414       .  A
C3437      C3439   1.411       .  A
C3437      C3438   1.414       .  A
C3438      C3446   1.406       .  A
C3439      C3448   1.403       .  A
C3439      C3440   1.404       .  A
C3440      C3441   1.400       .  A
C3440      H3451   1.083       .  S
C3441      C3442   1.403       .  A
C3441      H3452   1.084       .  S
C3442      C3443   1.407       .  A
C3443      C3444   1.403       .  A
C3443      H3453   1.085       .  S
C3444      C3445   1.407       .  A
C3445      H3454   1.085       .  S
C3446      C3447   1.403       .  A
C3446      H3455   1.085       .  S
C3447      C3448   1.406       .  A
C3448      H3456   1.085       .  S
C3457      C3458   1.395       .  A
C3457      C3462   1.402       .  A
C3457      H3473   1.084       .  S
C3458      C3459   1.403       .  A
C3458      H3474   1.084       .  S
C3459      C3469   1.397       .  A
C3459      C3460   1.409       .  A
C3460      C3466   1.413       .  A
C3460      C3461   1.415       .  A
C3461      C3463   1.412       .  A
C3461      C3462   1.411       .  A
C3462      C3470   1.400       .  A
C3463      C3472   1.413       .  A
C3463      C3464   1.406       .  A
C3464      C3465   1.406       .  A
C3464      H3475   1.083       .  S
C3465      C3466   1.406       .  A
C3465      H3476   1.083       .  S
C3466      C3467   1.415       .  A
C3467      C3468   1.411       .  A
C3467      H3477   1.084       .  S
C3468      C3469   1.409       .  A
C3469      H3478   1.084       .  S
C3470      C3471   1.405       .  A
C3470      H3479   1.085       .  S
C3471      C3472   1.410       .  A
C3472      H3480   1.084       .  S
C3481      C3482   1.399       .  A
C3481      C3486   1.403       .  A
C3481      H3497   1.084       .  S
C3482      C3483   1.404       .  A
C3482      H3498   1.084       .  S
C3483      C3493   1.404       .  A
C3483      C3484   1.411       .  A
C3484      C3490   1.412       .  A
C3484      C3485   1.419       .  A
C3485      C3487   1.413       .  A
C3485      C3486   1.411       .  A
C3486      C3494   1.404       .  A
C3487      C3496   1.415       .  A
C3487      C3488   1.406       .  A
C3488      C3489   1.406       .  A
C3488      H3499   1.083       .  S
C3489      C3490   1.406       .  A
C3489      H3500   1.083       .  S
C3490      C3491   1.415       .  A
C3491      C3492   1.412       .  A
C3491      H3501   1.084       .  S
C3492      C3493   1.410       .  A
C3493      H3502   1.084       .  S
C3494      C3495   1.408       .  A
C3494      H3503   1.085       .  S
C3495      C3496   1.410       .  A
C3496      H3504   1.084       .  S
C3505      C3506   1.405       .  A
C3505      C3510   1.406       .  A
C3505      H3521   1.083       .  S
C3506      C3507   1.407       .  A
C3506      H3522   1.083       .  S
C3507      C3517   1.414       .  A
C3507      C3508   1.412       .  A
C3508      C3514   1.410       .  A
C3508      C3509   1.415       .  A
C3509      C3511   1.411       .  A
C3509      C3510   1.412       .  A
C3510      C3518   1.413       .  A
C3511      C3520   1.399       .  A
C3511      C3512   1.402       .  A
C3512      C3513   1.395       .  A
C3512      H3523   1.084       .  S
C3513      C3514   1.402       .  A
C3513      H3524   1.084       .  S
C3514      C3515   1.398       .  A
C3515      C3516   1.407       .  A
C3515      H3525   1.084       .  S
C3516      C3517   1.413       .  A
C3517      H3526   1.084       .  S
C3518      C3519   1.410       .  A
C3518      H3527   1.084       .  S
C3519      C3520   1.404       .  A
C3520      H3528   1.085       .  S
C3529      C3530   1.397       .  A
C3529      C3534   1.403       .  A
C3529      H3545   1.084       .  S
C3530      C3531   1.403       .  A
C3530      H3546   1.084       .  S
C3531      C3541   1.398       .  A
C3531      C3532   1.411       .  A
C3532      C3538   1.414       .  A
C3532      C3533   1.411       .  A
C3533      C3535   1.411       .  A
C3533      C3534   1.412       .  A
C3534      C3542   1.400       .  A
C3535      C3544   1.404       .  A
C3535      C3536   1.404       .  A
C3536      C3537   1.400       .  A
C3536      H3547   1.083       .  S
C3537      C3538   1.403       .  A
C3537      H3548   1.084       .  S
C3538      C3539   1.406       .  A
C3539      C3540   1.403       .  A
C3539      H3549   1.084       .  S
C3540      C3541   1.405       .  A
C3541      H3550   1.085       .  S
C3542      C3543   1.407       .  A
C3542      H3551   1.084       .  S
C3543      C3544   1.408       .  A
C3544      H3552   1.084       .  S
C3553      C3554   1.400       .  A
C3553      C3558   1.404       .  A
C3553      H3569   1.084       .  S
C3554      C3555   1.404       .  A
C3554      H3570   1.084       .  S
C3555      C3565   1.407       .  A
C3555      C3556   1.411       .  A
C3556      C3562   1.411       .  A
C3556      C3557   1.419       .  A
C3557      C3559   1.413       .  A
C3557      C3558   1.410       .  A
C3558      C3566   1.406       .  A
C3559      C3568   1.415       .  A
C3559      C3560   1.405       .  A
C3560      C3561   1.405       .  A
C3560      H3571   1.083       .  S
C3561      C3562   1.406       .  A
C3561      H3572   1.083       .  S
C3562      C3563   1.413       .  A
C3563      C3564   1.412       .  A
C3563      H3573   1.084       .  S
C3564      C3565   1.411       .  A
C3565      H3574   1.084       .  S
C3566      C3567   1.410       .  A
C3566      H3575   1.085       .  S
C3567      C3568   1.410       .  A
C3568      H3576   1.084       .  S
C3577      C3578   1.400       .  A
C3577      C3582   1.403       .  A
C3577      H3593   1.084       .  S
C3578      C3579   1.404       .  A
C3578      H3594   1.083       .  S
C3579      C3589   1.404       .  A
C3579      C3580   1.410       .  A
C3580      C3586   1.412       .  A
C3580      C3581   1.412       .  A
C3581      C3583   1.410       .  A
C3581      C3582   1.415       .  A
C3582      C3590   1.408       .  A
C3583      C3592   1.399       .  A
C3583      C3584   1.404       .  A
C3584      C3585   1.398       .  A
C3584      H3595   1.084       .  S
C3585      C3586   1.403       .  A
C3585      H3596   1.084       .  S
C3586      C3587   1.402       .  A
C3587      C3588   1.408       .  A
C3587      H3597   1.084       .  S
C3588      C3589   1.408       .  A
C3589      H3598   1.084       .  S
C3590      C3591   1.403       .  A
C3590      H3599   1.084       .  S
C3591      C3592   1.407       .  A
C3592      H3600   1.085       .  S
C3601      C3602   1.400       .  A
C3601      C3606   1.404       .  A
C3601      H3617   1.083       .  S
C3602      C3603   1.403       .  A
C3602      H3618   1.084       .  S
C3603      C3613   1.406       .  A
C3603      C3604   1.413       .  A
C3604      C3610   1.411       .  A
C3604      C3605   1.414       .  A
C3605      C3607   1.411       .  A
C3605      C3606   1.412       .  A
C3606      C3614   1.405       .  A
C3607      C3616   1.404       .  A
C3607      C3608   1.404       .  A
C3608      C3609   1.400       .  A
C3608      H3619   1.084       .  S
C3609      C3610   1.404       .  A
C3609      H3620   1.083       .  S
C3610      C3611   1.404       .  A
C3611      C3612   1.407       .  A
C3611      H3621   1.085       .  S
C3612      C3613   1.404       .  A
C3613      H3622   1.084       .  S
C3614      C3615   1.407       .  A
C3614      H3623   1.084       .  S
C3615      C3616   1.410       .  A
C3616      H3624   1.084       .  S
C3625      C3626   1.406   1_554  A
C3625      C3630   1.406       .  A
C3625      H3641   1.083       .  S
C3626      C3627   1.407       .  A
C3626      H3642   1.083       .  S
C3627      C3637   1.416       .  A
C3627      C3628   1.412       .  A
C3628      C3634   1.411       .  A
C3628      C3629   1.420   1_556  A
C3629      C3631   1.410       .  A
C3629      C3630   1.413       .  A
C3630      C3638   1.416       .  A
C3631      C3640   1.403       .  A
C3631      C3632   1.404       .  A
C3632      C3633   1.399   1_554  A
C3632      H3643   1.084       .  S
C3633      C3634   1.404       .  A
C3633      H3644   1.084       .  S
C3634      C3635   1.406       .  A
C3635      C3636   1.412       .  A
C3635      H3645   1.084       .  S
C3636      C3637   1.413       .  A
C3637      H3646   1.084       .  S
C3638      C3639   1.410       .  A
C3638      H3647   1.084       .  S
C3639      C3640   1.411       .  A
C3640      H3648   1.084       .  S
C3649      C3650   1.401       .  A
C3649      C3654   1.404       .  A
C3649      H3665   1.083       .  S
C3650      C3651   1.404       .  A
C3650      H3666   1.084       .  S
C3651      C3661   1.407       .  A
C3651      C3652   1.413       .  A
C3652      C3658   1.413       .  A
C3652      C3653   1.416       .  A
C3653      C3655   1.412       .  A
C3653      C3654   1.413       .  A
C3654      C3662   1.407       .  A
C3655      C3664   1.407       .  A
C3655      C3656   1.404       .  A
C3656      C3657   1.400       .  A
C3656      H3667   1.083       .  S
C3657      C3658   1.404       .  A
C3657      H3668   1.084       .  S
C3658      C3659   1.406       .  A
C3659      C3660   1.403       .  A
C3659      H3669   1.085       .  S
C3660      C3661   1.406       .  A
C3661      H3670   1.085       .  S
C3662      C3663   1.405       .  A
C3662      H3671   1.085       .  S
C3663      C3664   1.406       .  A
C3664      H3672   1.085       .  S
C3673      C3674   1.400       .  A
C3673      C3678   1.405       .  A
C3673      H3689   1.083       .  S
C3674      C3675   1.404       .  A
C3674      H3690   1.084       .  S
C3675      C3685   1.407       .  A
C3675      C3676   1.414       .  A
C3676      C3682   1.411       .  A
C3676      C3677   1.415       .  A
C3677      C3679   1.414       .  A
C3677      C3678   1.411       .  A
C3678      C3686   1.405       .  A
C3679      C3688   1.406       .  A
C3679      C3680   1.403       .  A
C3680      C3681   1.400       .  A
C3680      H3691   1.084       .  S
C3681      C3682   1.404       .  A
C3681      H3692   1.083       .  S
C3682      C3683   1.405       .  A
C3683      C3684   1.406       .  A
C3683      H3693   1.085       .  S
C3684      C3685   1.404       .  A
C3685      H3694   1.085       .  S
C3686      C3687   1.408       .  A
C3686      H3695   1.085       .  S
C3687      C3688   1.402       .  A
C3688      H3696   1.085       .  S
C3697      C3698   1.403   1_554  A
C3697      C3702   1.405       .  A
C3697      H3713   1.083       .  S
C3698      C3699   1.405       .  A
C3698      H3714   1.083       .  S
C3699      C3709   1.409       .  A
C3699      C3700   1.412       .  A
C3700      C3706   1.410       .  A
C3700      C3701   1.411   1_556  A
C3701      C3703   1.410       .  A
C3701      C3702   1.413       .  A
C3702      C3710   1.410       .  A
C3703      C3712   1.394       .  A
C3703      C3704   1.402       .  A
C3704      C3705   1.393   1_554  A
C3704      H3715   1.084       .  S
C3705      C3706   1.401       .  A
C3705      H3716   1.084       .  S
C3706      C3707   1.394       .  A
C3707      C3708   1.406       .  A
C3707      H3717   1.085       .  S
C3708      C3709   1.408       .  A
C3709      H3718   1.084       .  S
C3710      C3711   1.409       .  A
C3710      H3719   1.084       .  S
C3711      C3712   1.406       .  A
C3712      H3720   1.085       .  S
C3721      C3722   1.409   1_565  A
C3721      C3726   1.407       .  A
C3721      H3737   1.083       .  S
C3722      C3723   1.408       .  A
C3722      H3738   1.083       .  S
C3723      C3733   1.420       .  A
C3723      C3724   1.412       .  A
C3724      C3730   1.410       .  A
C3724      C3725   1.420   1_545  A
C3725      C3727   1.409       .  A
C3725      C3726   1.413       .  A
C3726      C3734   1.420       .  A
C3727      C3736   1.400       .  A
C3727      C3728   1.402       .  A
C3728      C3729   1.396   1_565  A
C3728      H3739   1.084       .  S
C3729      C3730   1.403       .  A
C3729      H3740   1.084       .  S
C3730      C3731   1.402       .  A
C3731      C3732   1.410       .  A
C3731      H3741   1.084       .  S
C3732      C3733   1.415       .  A
C3733      H3742   1.084       .  S
C3734      C3735   1.413       .  A
C3734      H3743   1.084       .  S
C3735      C3736   1.409       .  A
C3736      H3744   1.085       .  S
C3745      C3746   1.399       .  A
C3745      C3750   1.403       .  A
C3745      H3761   1.083       .  S
C3746      C3747   1.404       .  A
C3746      H3762   1.084       .  S
C3747      C3757   1.399       .  A
C3747      C3748   1.409       .  A
C3748      C3754   1.414       .  A
C3748      C3749   1.412       .  A
C3749      C3751   1.409       .  A
C3749      C3750   1.416       .  A
C3750      C3758   1.408       .  A
C3751      C3760   1.399       .  A
C3751      C3752   1.404       .  A
C3752      C3753   1.399       .  A
C3752      H3763   1.084       .  S
C3753      C3754   1.403       .  A
C3753      H3764   1.084       .  S
C3754      C3755   1.406       .  A
C3755      C3756   1.407       .  A
C3755      H3765   1.084       .  S
C3756      C3757   1.408       .  A
C3757      H3766   1.084       .  S
C3758      C3759   1.403       .  A
C3758      H3767   1.084       .  S
C3759      C3760   1.405       .  A
C3760      H3768   1.084       .  S
C3769      C3770   1.399       .  A
C3769      C3774   1.403       .  A
C3769      H3785   1.084       .  S
C3770      C3771   1.403       .  A
C3770      H3786   1.083       .  S
C3771      C3781   1.403       .  A
C3771      C3772   1.411       .  A
C3772      C3778   1.414       .  A
C3772      C3773   1.415       .  A
C3773      C3775   1.410       .  A
C3773      C3774   1.414       .  A
C3774      C3782   1.406       .  A
C3775      C3784   1.406       .  A
C3775      C3776   1.406       .  A
C3776      C3777   1.402       .  A
C3776      H3787   1.083       .  S
C3777      C3778   1.405       .  A
C3777      H3788   1.084       .  S
C3778      C3779   1.409       .  A
C3779      C3780   1.406       .  A
C3779      H3789   1.085       .  S
C3780      C3781   1.404       .  A
C3781      H3790   1.085       .  S
C3782      C3783   1.403       .  A
C3782      H3791   1.085       .  S
C3783      C3784   1.411       .  A
C3784      H3792   1.084       .  S
C3793      C3794   1.398       .  A
C3793      C3798   1.403       .  A
C3793      H3809   1.084       .  S
C3794      C3795   1.403       .  A
C3794      H3810   1.084       .  S
C3795      C3805   1.404       .  A
C3795      C3796   1.413       .  A
C3796      C3802   1.413       .  A
C3796      C3797   1.414       .  A
C3797      C3799   1.412       .  A
C3797      C3798   1.413       .  A
C3798      C3806   1.403       .  A
C3799      C3808   1.406       .  A
C3799      C3800   1.405       .  A
C3800      C3801   1.401       .  A
C3800      H3811   1.084       .  S
C3801      C3802   1.405       .  A
C3801      H3812   1.084       .  S
C3802      C3803   1.407       .  A
C3803      C3804   1.406       .  A
C3803      H3813   1.085       .  S
C3804      C3805   1.402       .  A
C3805      H3814   1.085       .  S
C3806      C3807   1.401       .  A
C3806      H3815   1.085       .  S
C3807      C3808   1.406       .  A
C3808      H3816   1.085       .  S
C3817      C3818   1.398   1_565  A
C3817      C3822   1.403       .  A
C3817      H3833   1.084       .  S
C3818      C3819   1.403       .  A
C3818      H3834   1.084       .  S
C3819      C3829   1.402       .  A
C3819      C3820   1.411       .  A
C3820      C3826   1.413       .  A
C3820      C3821   1.416   1_545  A
C3821      C3823   1.412       .  A
C3821      C3822   1.411       .  A
C3822      C3830   1.401       .  A
C3823      C3832   1.410       .  A
C3823      C3824   1.405       .  A
C3824      C3825   1.403   1_565  A
C3824      H3835   1.083       .  S
C3825      C3826   1.405       .  A
C3825      H3836   1.083       .  S
C3826      C3827   1.412       .  A
C3827      C3828   1.408       .  A
C3827      H3837   1.084       .  S
C3828      C3829   1.408       .  A
C3829      H3838   1.085       .  S
C3830      C3831   1.408       .  A
C3830      H3839   1.084       .  S
C3831      C3832   1.411       .  A
C3832      H3840   1.084       .  S
C3841      C3842   1.403       .  A
C3841      C3846   1.404       .  A
C3841      H3857   1.084       .  S
C3842      C3843   1.405       .  A
C3842      H3858   1.083       .  S
C3843      C3853   1.413       .  A
C3843      C3844   1.414       .  A
C3844      C3850   1.412       .  A
C3844      C3845   1.418       .  A
C3845      C3847   1.412       .  A
C3845      C3846   1.413       .  A
C3846      C3854   1.410       .  A
C3847      C3856   1.407       .  A
C3847      C3848   1.405       .  A
C3848      C3849   1.401       .  A
C3848      H3859   1.084       .  S
C3849      C3850   1.404       .  A
C3849      H3860   1.084       .  S
C3850      C3851   1.406       .  A
C3851      C3852   1.406       .  A
C3851      H3861   1.085       .  S
C3852      C3853   1.408       .  A
C3853      H3862   1.084       .  S
C3854      C3855   1.405       .  A
C3854      H3863   1.085       .  S
C3855      C3856   1.408       .  A
C3856      H3864   1.085       .  S
C3865      C3866   1.400       .  A
C3865      C3870   1.404       .  A
C3865      H3881   1.083       .  S
C3866      C3867   1.403       .  A
C3866      H3882   1.084       .  S
C3867      C3877   1.408       .  A
C3867      C3868   1.414       .  A
C3868      C3874   1.411       .  A
C3868      C3869   1.415       .  A
C3869      C3871   1.415       .  A
C3869      C3870   1.411       .  A
C3870      C3878   1.403       .  A
C3871      C3880   1.409       .  A
C3871      C3872   1.404       .  A
C3872      C3873   1.401       .  A
C3872      H3883   1.084       .  S
C3873      C3874   1.405       .  A
C3873      H3884   1.083       .  S
C3874      C3875   1.404       .  A
C3875      C3876   1.407       .  A
C3875      H3885   1.085       .  S
C3876      C3877   1.404       .  A
C3877      H3886   1.085       .  S
C3878      C3879   1.406       .  A
C3878      H3887   1.085       .  S
C3879      C3880   1.405       .  A
C3880      H3888   1.085       .  S
C3889      C3890   1.400       .  A
C3889      C3894   1.403       .  A
C3889      H3905   1.084       .  S
C3890      C3891   1.404       .  A
C3890      H3906   1.084       .  S
C3891      C3901   1.404       .  A
C3891      C3892   1.410       .  A
C3892      C3898   1.413       .  A
C3892      C3893   1.415       .  A
C3893      C3895   1.411       .  A
C3893      C3894   1.414       .  A
C3894      C3902   1.407       .  A
C3895      C3904   1.405       .  A
C3895      C3896   1.405       .  A
C3896      C3897   1.401       .  A
C3896      H3907   1.084       .  S
C3897      C3898   1.404       .  A
C3897      H3908   1.084       .  S
C3898      C3899   1.408       .  A
C3899      C3900   1.407       .  A
C3899      H3909   1.084       .  S
C3900      C3901   1.409       .  A
C3901      H3910   1.084       .  S
C3902      C3903   1.403       .  A
C3902      H3911   1.085       .  S
C3903      C3904   1.407       .  A
C3904      H3912   1.085       .  S
C3913      C3914   1.399       .  A
C3913      C3918   1.404       .  A
C3913      H3929   1.083       .  S
C3914      C3915   1.403       .  A
C3914      H3930   1.084       .  S
C3915      C3925   1.404       .  A
C3915      C3916   1.414       .  A
C3916      C3922   1.411       .  A
C3916      C3917   1.408       .  A
C3917      C3919   1.412       .  A
C3917      C3918   1.411       .  A
C3918      C3926   1.401       .  A
C3919      C3928   1.397       .  A
C3919      C3920   1.401       .  A
C3920      C3921   1.395       .  A
C3920      H3931   1.084       .  S
C3921      C3922   1.402       .  A
C3921      H3932   1.084       .  S
C3922      C3923   1.394       .  A
C3923      C3924   1.402       .  A
C3923      H3933   1.085       .  S
C3924      C3925   1.402       .  A
C3925      H3934   1.085       .  S
C3926      C3927   1.407       .  A
C3926      H3935   1.084       .  S
C3927      C3928   1.403       .  A
C3928      H3936   1.085       .  S
C3937      C3938   1.398       .  A
C3937      C3942   1.403       .  A
C3937      H3953   1.084       .  S
C3938      C3939   1.403       .  A
C3938      H3954   1.084       .  S
C3939      C3949   1.402       .  A
C3939      C3940   1.410       .  A
C3940      C3946   1.413       .  A
C3940      C3941   1.416       .  A
C3941      C3943   1.412       .  A
C3941      C3942   1.411       .  A
C3942      C3950   1.402       .  A
C3943      C3952   1.410       .  A
C3943      C3944   1.405       .  A
C3944      C3945   1.404       .  A
C3944      H3955   1.083       .  S
C3945      C3946   1.405       .  A
C3945      H3956   1.083       .  S
C3946      C3947   1.412       .  A
C3947      C3948   1.409       .  A
C3947      H3957   1.084       .  S
C3948      C3949   1.408       .  A
C3949      H3958   1.085       .  S
C3950      C3951   1.409       .  A
C3950      H3959   1.084       .  S
C3951      C3952   1.410       .  A
C3952      H3960   1.084       .  S
C3961      C3962   1.394       .  A
C3961      C3966   1.402       .  A
C3961      H3977   1.084       .  S
C3962      C3963   1.402       .  A
C3962      H3978   1.084       .  S
C3963      C3973   1.395       .  A
C3963      C3964   1.409       .  A
C3964      C3970   1.413       .  A
C3964      C3965   1.415       .  A
C3965      C3967   1.412       .  A
C3965      C3966   1.410       .  A
C3966      C3974   1.397       .  A
C3967      C3976   1.413       .  A
C3967      C3968   1.406       .  A
C3968      C3969   1.406       .  A
C3968      H3979   1.083       .  S
C3969      C3970   1.406       .  A
C3969      H3980   1.083       .  S
C3970      C3971   1.415       .  A
C3971      C3972   1.411       .  A
C3971      H3981   1.084       .  S
C3972      C3973   1.407       .  A
C3973      H3982   1.085       .  S
C3974      C3975   1.408       .  A
C3974      H3983   1.084       .  S
C3975      C3976   1.411       .  A
C3976      H3984   1.084       .  S
C3985      C3986   1.405       .  A
C3985      C3990   1.406       .  A
C3985      H4001   1.083       .  S
C3986      C3987   1.406       .  A
C3986      H4002   1.083       .  S
C3987      C3997   1.415       .  A
C3987      C3988   1.412       .  A
C3988      C3994   1.410       .  A
C3988      C3989   1.419       .  A
C3989      C3991   1.411       .  A
C3989      C3990   1.413       .  A
C3990      C3998   1.414       .  A
C3991      C4000   1.404       .  A
C3991      C3992   1.403       .  A
C3992      C3993   1.399       .  A
C3992      H4003   1.084       .  S
C3993      C3994   1.404       .  A
C3993      H4004   1.084       .  S
C3994      C3995   1.404       .  A
C3995      C3996   1.411       .  A
C3995      H4005   1.084       .  S
C3996      C3997   1.412       .  A
C3997      H4006   1.084       .  S
C3998      C3999   1.409       .  A
C3998      H4007   1.084       .  S
C3999      C4000   1.408       .  A
C4000      H4008   1.085       .  S
C4009      C4010   1.401       .  A
C4009      C4014   1.405       .  A
C4009      H4025   1.084       .  S
C4010      C4011   1.405       .  A
C4010      H4026   1.084       .  S
C4011      C4021   1.406       .  A
C4011      C4012   1.409       .  A
C4012      C4018   1.414       .  A
C4012      C4013   1.422       .  A
C4013      C4015   1.411       .  A
C4013      C4014   1.412       .  A
C4014      C4022   1.410       .  A
C4015      C4024   1.415       .  A
C4015      C4016   1.406       .  A
C4016      C4017   1.406       .  A
C4016      H4027   1.083       .  S
C4017      C4018   1.406       .  A
C4017      H4028   1.083       .  S
C4018      C4019   1.419       .  A
C4019      C4020   1.411       .  A
C4019      H4029   1.084       .  S
C4020      C4021   1.413       .  A
C4021      H4030   1.085       .  S
C4022      C4023   1.413       .  A
C4022      H4031   1.084       .  S
C4023      C4024   1.413       .  A
C4024      H4032   1.084       .  S
C4033      C4034   1.400       .  A
C4033      C4038   1.404       .  A
C4033      H4049   1.083       .  S
C4034      C4035   1.403       .  A
C4034      H4050   1.084       .  S
C4035      C4045   1.406       .  A
C4035      C4036   1.414       .  A
C4036      C4042   1.411       .  A
C4036      C4037   1.412       .  A
C4037      C4039   1.412       .  A
C4037      C4038   1.411       .  A
C4038      C4046   1.404       .  A
C4039      C4048   1.401       .  A
C4039      C4040   1.403       .  A
C4040      C4041   1.398       .  A
C4040      H4051   1.084       .  S
C4041      C4042   1.403       .  A
C4041      H4052   1.084       .  S
C4042      C4043   1.399       .  A
C4043      C4044   1.405       .  A
C4043      H4053   1.085       .  S
C4044      C4045   1.402       .  A
C4045      H4054   1.084       .  S
C4046      C4047   1.408       .  A
C4046      H4055   1.084       .  S
C4047      C4048   1.408       .  A
C4048      H4056   1.084       .  S
C4057      C4058   1.405       .  A
C4057      C4062   1.406       .  A
C4057      H4073   1.083       .  S
C4058      C4059   1.406       .  A
C4058      H4074   1.083       .  S
C4059      C4069   1.412       .  A
C4059      C4060   1.413       .  A
C4060      C4066   1.410       .  A
C4060      C4061   1.415       .  A
C4061      C4063   1.410       .  A
C4061      C4062   1.412       .  A
C4062      C4070   1.413       .  A
C4063      C4072   1.399       .  A
C4063      C4064   1.402       .  A
C4064      C4065   1.395       .  A
C4064      H4075   1.084       .  S
C4065      C4066   1.401       .  A
C4065      H4076   1.084       .  S
C4066      C4067   1.397       .  A
C4067      C4068   1.405       .  A
C4067      H4077   1.085       .  S
C4068      C4069   1.410       .  A
C4069      H4078   1.084       .  S
C4070      C4071   1.412       .  A
C4070      H4079   1.084       .  S
C4071      C4072   1.408       .  A
C4072      H4080   1.084       .  S
C4081      C4082   1.397       .  A
C4081      C4086   1.402       .  A
C4081      H4097   1.084       .  S
C4082      C4083   1.403       .  A
C4082      H4098   1.084       .  S
C4083      C4093   1.399       .  A
C4083      C4084   1.410       .  A
C4084      C4090   1.413       .  A
C4084      C4085   1.414       .  A
C4085      C4087   1.413       .  A
C4085      C4086   1.411       .  A
C4086      C4094   1.400       .  A
C4087      C4096   1.410       .  A
C4087      C4088   1.405       .  A
C4088      C4089   1.404       .  A
C4088      H4099   1.083       .  S
C4089      C4090   1.405       .  A
C4089      H4100   1.083       .  S
C4090      C4091   1.411       .  A
C4091      C4092   1.410       .  A
C4091      H4101   1.084       .  S
C4092      C4093   1.407       .  A
C4093      H4102   1.084       .  S
C4094      C4095   1.405       .  A
C4094      H4103   1.085       .  S
C4095      C4096   1.407       .  A
C4096      H4104   1.084       .  S
C4105      C4106   1.401       .  A
C4105      C4110   1.405       .  A
C4105      H4121   1.083       .  S
C4106      C4107   1.404       .  A
C4106      H4122   1.084       .  S
C4107      C4117   1.407       .  A
C4107      C4108   1.414       .  A
C4108      C4114   1.411       .  A
C4108      C4109   1.411       .  A
C4109      C4111   1.412       .  A
C4109      C4110   1.411       .  A
C4110      C4118   1.405       .  A
C4111      C4120   1.400       .  A
C4111      C4112   1.403       .  A
C4112      C4113   1.396       .  A
C4112      H4123   1.084       .  S
C4113      C4114   1.403       .  A
C4113      H4124   1.084       .  S
C4114      C4115   1.397       .  A
C4115      C4116   1.403       .  A
C4115      H4125   1.085       .  S
C4116      C4117   1.403       .  A
C4117      H4126   1.084       .  S
C4118      C4119   1.409       .  A
C4118      H4127   1.084       .  S
C4119      C4120   1.405       .  A
C4120      H4128   1.085       .  S
C4129      C4130   1.402       .  A
C4129      C4134   1.405       .  A
C4129      H4145   1.083       .  S
C4130      C4131   1.404       .  A
C4130      H4146   1.084       .  S
C4131      C4141   1.409       .  A
C4131      C4132   1.415       .  A
C4132      C4138   1.410       .  A
C4132      C4133   1.412       .  A
C4133      C4135   1.413       .  A
C4133      C4134   1.410       .  A
C4134      C4142   1.405       .  A
C4135      C4144   1.401       .  A
C4135      C4136   1.402       .  A
C4136      C4137   1.396       .  A
C4136      H4147   1.084       .  S
C4137      C4138   1.402       .  A
C4137      H4148   1.084       .  S
C4138      C4139   1.396       .  A
C4139      C4140   1.402       .  A
C4139      H4149   1.085       .  S
C4140      C4141   1.405       .  A
C4141      H4150   1.084       .  S
C4142      C4143   1.410       .  A
C4142      H4151   1.084       .  S
C4143      C4144   1.405       .  A
C4144      H4152   1.084       .  S
C4153      C4154   1.397   1_455  A
C4153      C4158   1.403       .  A
C4153      H4169   1.084       .  S
C4154      C4155   1.403       .  A
C4154      H4170   1.084       .  S
C4155      C4165   1.401       .  A
C4155      C4156   1.410       .  A
C4156      C4162   1.413       .  A
C4156      C4157   1.418   1_655  A
C4157      C4159   1.412       .  A
C4157      C4158   1.410       .  A
C4158      C4166   1.401       .  A
C4159      C4168   1.415       .  A
C4159      C4160   1.406       .  A
C4160      C4161   1.406   1_455  A
C4160      H4171   1.083       .  S
C4161      C4162   1.407       .  A
C4161      H4172   1.083       .  S
C4162      C4163   1.416       .  A
C4163      C4164   1.412       .  A
C4163      H4173   1.084       .  S
C4164      C4165   1.408       .  A
C4165      H4174   1.085       .  S
C4166      C4167   1.409       .  A
C4166      H4175   1.084       .  S
C4167      C4168   1.412       .  A
C4168      H4176   1.084       .  S
C4177      C4178   1.402   1_545  A
C4177      C4182   1.404       .  A
C4177      H4193   1.084       .  S
C4178      C4179   1.405       .  A
C4178      H4194   1.083       .  S
C4179      C4189   1.409       .  A
C4179      C4180   1.413       .  A
C4180      C4186   1.410       .  A
C4180      C4181   1.412   1_565  A
C4181      C4183   1.410       .  A
C4181      C4182   1.412       .  A
C4182      C4190   1.408       .  A
C4183      C4192   1.398       .  A
C4183      C4184   1.403       .  A
C4184      C4185   1.396   1_545  A
C4184      H4195   1.084       .  S
C4185      C4186   1.403       .  A
C4185      H4196   1.084       .  S
C4186      C4187   1.398       .  A
C4187      C4188   1.407       .  A
C4187      H4197   1.085       .  S
C4188      C4189   1.407       .  A
C4189      H4198   1.084       .  S
C4190      C4191   1.408       .  A
C4190      H4199   1.084       .  S
C4191      C4192   1.409       .  A
C4192      H4200   1.084       .  S
C4201      C4202   1.403       .  A
C4201      C4206   1.405       .  A
C4201      H4217   1.084       .  S
C4202      C4203   1.405       .  A
C4202      H4218   1.084       .  S
C4203      C4213   1.410       .  A
C4203      C4204   1.413       .  A
C4204      C4210   1.412       .  A
C4204      C4205   1.418       .  A
C4205      C4207   1.412       .  A
C4205      C4206   1.413       .  A
C4206      C4214   1.411       .  A
C4207      C4216   1.406       .  A
C4207      C4208   1.404       .  A
C4208      C4209   1.400       .  A
C4208      H4219   1.083       .  S
C4209      C4210   1.404       .  A
C4209      H4220   1.084       .  S
C4210      C4211   1.407       .  A
C4211      C4212   1.405       .  A
C4211      H4221   1.085       .  S
C4212      C4213   1.407       .  A
C4213      H4222   1.085       .  S
C4214      C4215   1.407       .  A
C4214      H4223   1.085       .  S
C4215      C4216   1.405       .  A
C4216      H4224   1.085       .  S
C4225      C4226   1.402       .  A
C4225      C4230   1.405       .  A
C4225      H4241   1.084       .  S
C4226      C4227   1.405       .  A
C4226      H4242   1.083       .  S
C4227      C4237   1.407       .  A
C4227      C4228   1.411       .  A
C4228      C4234   1.414       .  A
C4228      C4229   1.417       .  A
C4229      C4231   1.410       .  A
C4229      C4230   1.415       .  A
C4230      C4238   1.413       .  A
C4231      C4240   1.404       .  A
C4231      C4232   1.404       .  A
C4232      C4233   1.400       .  A
C4232      H4243   1.083       .  S
C4233      C4234   1.403       .  A
C4233      H4244   1.084       .  S
C4234      C4235   1.408       .  A
C4235      C4236   1.404       .  A
C4235      H4245   1.085       .  S
C4236      C4237   1.407       .  A
C4237      H4246   1.085       .  S
C4238      C4239   1.407       .  A
C4238      H4247   1.084       .  S
C4239      C4240   1.408       .  A
C4240      H4248   1.085       .  S
C4249      C4250   1.397   1_556  A
C4249      C4254   1.402       .  A
C4249      H4265   1.084       .  S
C4250      C4251   1.403       .  A
C4250      H4266   1.084       .  S
C4251      C4261   1.400       .  A
C4251      C4252   1.410       .  A
C4252      C4258   1.413       .  A
C4252      C4253   1.417   1_554  A
C4253      C4255   1.412       .  A
C4253      C4254   1.411       .  A
C4254      C4262   1.401       .  A
C4255      C4264   1.413       .  A
C4255      C4256   1.406       .  A
C4256      C4257   1.405   1_556  A
C4256      H4267   1.083       .  S
C4257      C4258   1.406       .  A
C4257      H4268   1.083       .  S
C4258      C4259   1.414       .  A
C4259      C4260   1.411       .  A
C4259      H4269   1.084       .  S
C4260      C4261   1.410       .  A
C4261      H4270   1.084       .  S
C4262      C4263   1.407       .  A
C4262      H4271   1.085       .  S
C4263      C4264   1.411       .  A
C4264      H4272   1.084       .  S
C4273      C4274   1.394   1_545  A
C4273      C4278   1.401       .  A
C4273      H4289   1.084       .  S
C4274      C4275   1.402       .  A
C4274      H4290   1.084       .  S
C4275      C4285   1.397       .  A
C4275      C4276   1.410       .  A
C4276      C4282   1.412       .  A
C4276      C4277   1.416   1_565  A
C4277      C4279   1.413       .  A
C4277      C4278   1.409       .  A
C4278      C4286   1.395       .  A
C4279      C4288   1.417       .  A
C4279      C4280   1.407       .  A
C4280      C4281   1.408   1_545  A
C4280      H4291   1.083       .  S
C4281      C4282   1.408       .  A
C4281      H4292   1.083       .  S
C4282      C4283   1.417       .  A
C4283      C4284   1.414       .  A
C4283      H4293   1.084       .  S
C4284      C4285   1.407       .  A
C4285      H4294   1.084       .  S
C4286      C4287   1.408       .  A
C4286      H4295   1.084       .  S
C4287      C4288   1.412       .  A
C4288      H4296   1.084       .  S
C4297      C4298   1.398       .  A
C4297      C4302   1.404       .  A
C4297      H4313   1.084       .  S
C4298      C4299   1.404       .  A
C4298      H4314   1.084       .  S
C4299      C4309   1.404       .  A
C4299      C4300   1.413       .  A
C4300      C4306   1.412       .  A
C4300      C4301   1.413       .  A
C4301      C4303   1.415       .  A
C4301      C4302   1.410       .  A
C4302      C4310   1.400       .  A
C4303      C4312   1.407       .  A
C4303      C4304   1.403       .  A
C4304      C4305   1.400       .  A
C4304      H4315   1.083       .  S
C4305      C4306   1.404       .  A
C4305      H4316   1.084       .  S
C4306      C4307   1.405       .  A
C4307      C4308   1.404       .  A
C4307      H4317   1.086       .  S
C4308      C4309   1.403       .  A
C4309      H4318   1.085       .  S
C4310      C4311   1.408       .  A
C4310      H4319   1.085       .  S
C4311      C4312   1.403       .  A
C4312      H4320   1.084       .  S
C4321      C4322   1.400       .  A
C4321      C4326   1.404       .  A
C4321      H4337   1.083       .  S
C4322      C4323   1.404       .  A
C4322      H4338   1.084       .  S
C4323      C4333   1.405       .  A
C4323      C4324   1.413       .  A
C4324      C4330   1.412       .  A
C4324      C4325   1.412       .  A
C4325      C4327   1.412       .  A
C4325      C4326   1.413       .  A
C4326      C4334   1.405       .  A
C4327      C4336   1.401       .  A
C4327      C4328   1.403       .  A
C4328      C4329   1.398       .  A
C4328      H4339   1.084       .  S
C4329      C4330   1.403       .  A
C4329      H4340   1.084       .  S
C4330      C4331   1.401       .  A
C4331      C4332   1.403       .  A
C4331      H4341   1.085       .  S
C4332      C4333   1.403       .  A
C4333      H4342   1.085       .  S
C4334      C4335   1.403       .  A
C4334      H4343   1.085       .  S
C4335      C4336   1.404       .  A
C4336      H4344   1.085       .  S
C4345      C4346   1.399       .  A
C4345      C4350   1.403       .  A
C4345      H4361   1.084       .  S
C4346      C4347   1.404       .  A
C4346      H4362   1.084       .  S
C4347      C4357   1.401       .  A
C4347      C4348   1.411       .  A
C4348      C4354   1.414       .  A
C4348      C4349   1.413       .  A
C4349      C4351   1.411       .  A
C4349      C4350   1.412       .  A
C4350      C4358   1.403       .  A
C4351      C4360   1.405       .  A
C4351      C4352   1.404       .  A
C4352      C4353   1.400       .  A
C4352      H4363   1.084       .  S
C4353      C4354   1.404       .  A
C4353      H4364   1.083       .  S
C4354      C4355   1.408       .  A
C4355      C4356   1.404       .  A
C4355      H4365   1.084       .  S
C4356      C4357   1.406       .  A
C4357      H4366   1.085       .  S
C4358      C4359   1.408       .  A
C4358      H4367   1.084       .  S
C4359      C4360   1.408       .  A
C4360      H4368   1.084       .  S
C4369      C4370   1.405   1_554  A
C4369      C4374   1.406       .  A
C4369      H4385   1.084       .  S
C4370      C4371   1.406       .  A
C4370      H4386   1.083       .  S
C4371      C4381   1.415       .  A
C4371      C4372   1.413       .  A
C4372      C4378   1.409       .  A
C4372      C4373   1.416   1_556  A
C4373      C4375   1.412       .  A
C4373      C4374   1.412       .  A
C4374      C4382   1.411       .  A
C4375      C4384   1.401       .  A
C4375      C4376   1.402       .  A
C4376      C4377   1.396   1_554  A
C4376      H4387   1.084       .  S
C4377      C4378   1.403       .  A
C4377      H4388   1.084       .  S
C4378      C4379   1.399       .  A
C4379      C4380   1.410       .  A
C4379      H4389   1.084       .  S
C4380      C4381   1.412       .  A
C4381      H4390   1.084       .  S
C4382      C4383   1.409       .  A
C4382      H4391   1.084       .  S
C4383      C4384   1.405       .  A
C4384      H4392   1.085       .  S
C4393      C4394   1.406   1_455  A
C4393      C4398   1.406       .  A
C4393      H4409   1.083       .  S
C4394      C4395   1.406       .  A
C4394      H4410   1.083       .  S
C4395      C4405   1.413       .  A
C4395      C4396   1.412       .  A
C4396      C4402   1.410       .  A
C4396      C4397   1.415   1_655  A
C4397      C4399   1.410       .  A
C4397      C4398   1.413       .  A
C4398      C4406   1.414       .  A
C4399      C4408   1.398       .  A
C4399      C4400   1.402       .  A
C4400      C4401   1.395   1_455  A
C4400      H4411   1.084       .  S
C4401      C4402   1.402       .  A
C4401      H4412   1.084       .  S
C4402      C4403   1.398       .  A
C4403      C4404   1.407       .  A
C4403      H4413   1.084       .  S
C4404      C4405   1.412       .  A
C4405      H4414   1.084       .  S
C4406      C4407   1.410       .  A
C4406      H4415   1.084       .  S
C4407      C4408   1.407       .  A
C4408      H4416   1.085       .  S
C4417      C4418   1.399       .  A
C4417      C4422   1.404       .  A
C4417      H4433   1.084       .  S
C4418      C4419   1.404       .  A
C4418      H4434   1.084       .  S
C4419      C4429   1.400       .  A
C4419      C4420   1.411       .  A
C4420      C4426   1.415       .  A
C4420      C4421   1.411       .  A
C4421      C4423   1.410       .  A
C4421      C4422   1.413       .  A
C4422      C4430   1.404       .  A
C4423      C4432   1.401       .  A
C4423      C4424   1.404       .  A
C4424      C4425   1.399       .  A
C4424      H4435   1.084       .  S
C4425      C4426   1.403       .  A
C4425      H4436   1.084       .  S
C4426      C4427   1.405       .  A
C4427      C4428   1.402       .  A
C4427      H4437   1.084       .  S
C4428      C4429   1.405       .  A
C4429      H4438   1.085       .  S
C4430      C4431   1.407       .  A
C4430      H4439   1.084       .  S
C4431      C4432   1.407       .  A
C4432      H4440   1.084       .  S
C4441      C4442   1.404       .  A
C4441      C4446   1.405       .  A
C4441      H4457   1.084       .  S
C4442      C4443   1.406       .  A
C4442      H4458   1.083       .  S
C4443      C4453   1.410       .  A
C4443      C4444   1.412       .  A
C4444      C4450   1.411       .  A
C4444      C4445   1.411       .  A
C4445      C4447   1.411       .  A
C4445      C4446   1.413       .  A
C4446      C4454   1.410       .  A
C4447      C4456   1.394       .  A
C4447      C4448   1.401       .  A
C4448      C4449   1.393       .  A
C4448      H4459   1.084       .  S
C4449      C4450   1.401       .  A
C4449      H4460   1.084       .  S
C4450      C4451   1.395       .  A
C4451      C4452   1.405       .  A
C4451      H4461   1.084       .  S
C4452      C4453   1.411       .  A
C4453      H4462   1.084       .  S
C4454      C4455   1.406       .  A
C4454      H4463   1.084       .  S
C4455      C4456   1.401       .  A
C4456      H4464   1.085       .  S
C4465      C4466   1.398       .  A
C4465      C4470   1.404       .  A
C4465      H4481   1.083       .  S
C4466      C4467   1.403       .  A
C4466      H4482   1.084       .  S
C4467      C4477   1.402       .  A
C4467      C4468   1.412       .  A
C4468      C4474   1.413       .  A
C4468      C4469   1.417       .  A
C4469      C4471   1.414       .  A
C4469      C4470   1.412       .  A
C4470      C4478   1.404       .  A
C4471      C4480   1.413       .  A
C4471      C4472   1.406       .  A
C4472      C4473   1.404       .  A
C4472      H4483   1.084       .  S
C4473      C4474   1.406       .  A
C4473      H4484   1.083       .  S
C4474      C4475   1.412       .  A
C4475      C4476   1.408       .  A
C4475      H4485   1.084       .  S
C4476      C4477   1.403       .  A
C4477      H4486   1.085       .  S
C4478      C4479   1.406       .  A
C4478      H4487   1.085       .  S
C4479      C4480   1.408       .  A
C4480      H4488   1.084       .  S
C4489      C4490   1.399       .  A
C4489      C4494   1.404       .  A
C4489      H4505   1.084       .  S
C4490      C4491   1.403       .  A
C4490      H4506   1.084       .  S
C4491      C4501   1.405       .  A
C4491      C4492   1.414       .  A
C4492      C4498   1.411       .  A
C4492      C4493   1.414       .  A
C4493      C4495   1.414       .  A
C4493      C4494   1.411       .  A
C4494      C4502   1.402       .  A
C4495      C4504   1.409       .  A
C4495      C4496   1.404       .  A
C4496      C4497   1.401       .  A
C4496      H4507   1.084       .  S
C4497      C4498   1.405       .  A
C4497      H4508   1.083       .  S
C4498      C4499   1.405       .  A
C4499      C4500   1.406       .  A
C4499      H4509   1.085       .  S
C4500      C4501   1.403       .  A
C4501      H4510   1.085       .  S
C4502      C4503   1.405       .  A
C4502      H4511   1.085       .  S
C4503      C4504   1.405       .  A
C4504      H4512   1.085       .  S
