geometry optimzed in LAMMPS
_audit_creation_date              2020-11-30 
_audit_creation_method            'lammps2cif' 
_symmetry_space_group_name_H-M    'P1' 
_symmetry_Int_Tables_number       1 
_symmetry_cell_setting            triclinic 
loop_ 
_symmetry_equiv_pos_as_xyz 
  x,y,z 
_cell_length_a                    36.73255431 
_cell_length_b                    36.465020060561855 
_cell_length_c                    36.551068041330964 
_cell_angle_alpha                 89.93776672539082 
_cell_angle_beta                  89.76225555459322 
_cell_angle_gamma                 90.25765386849193 
loop_ 
_atom_site_label 
_atom_site_type_symbol 
_atom_site_fract_x 
_atom_site_fract_y 
_atom_site_fract_z 
_atom_site_charge 
Zn1        Zn  0.30722414  0.74615423  0.52211004     1.49700
Zn2        Zn  0.25185627  0.68243491  0.50839026     1.49400
Zn3        Zn  0.24037217  0.73086999  0.57106982     1.49100
Zn4        Zn  0.23263807  0.76369773  0.48787828     1.49500
O5          O  0.25698415  0.73248403  0.52151573    -1.84100
O6          O  0.33743265  0.70772700  0.49830949    -0.74700
O7          O  0.23937263  0.64797366  0.54849108    -0.74500
O8          O  0.28785876  0.70653246  0.59478789    -0.74000
O9          O  0.29655132  0.66413089  0.48690345    -0.74700
O10         O  0.32213958  0.74934518  0.57268447    -0.74300
O11         O  0.20466626  0.68928405  0.57538668    -0.74900
O12         O  0.20224759  0.79485873  0.51758968    -0.74300
O13         O  0.20744242  0.67731651  0.47979510    -0.75100
O14         O  0.20866265  0.78047432  0.57667982    -0.74400
O15         O  0.19318859  0.73350215  0.46063998    -0.74900
O16         O  0.26832368  0.80234761  0.46512580    -0.74800
O17         O  0.31532131  0.79464854  0.50260947    -0.74600
C18         C  0.32923756  0.67565431  0.48757752     0.77200
C19         C  0.21163728  0.65601362  0.56739702     0.77700
C20         C  0.31955492  0.71705301  0.58441319     0.76600
C21         C  0.19431467  0.80013594  0.55084833     0.77000
C22         C  0.18558292  0.69937004  0.46478351     0.78100
C23         C  0.29848527  0.81346676  0.47918920     0.77200
Zn24       Zn  0.76150384  0.68000989  0.95304814     1.49700
Zn25       Zn  0.75608888  0.73325501  0.02124805     1.49400
Zn26       Zn  0.77710328  0.76426701  0.94578831     1.49100
Zn27       Zn  0.70296972  0.72946978  0.95388829     1.49500
O28         O  0.75055726  0.72668240  0.96959050    -1.84100
O29         O  0.79445366  0.65836376  0.98697236    -0.74700
O30         O  0.77715897  0.78796230  0.02654251    -0.74500
O31         O  0.81316195  0.74035543  0.90865921    -0.74000
O32         O  0.79547122  0.69660274  0.03477442    -0.74700
O33         O  0.78371402  0.68859414  0.90520622    -0.74300
O34         O  0.81430399  0.77691126  0.98077846    -0.74900
O35         O  0.68814972  0.78136886  0.95276084    -0.74300
O36         O  0.70673789  0.71311336  0.04482642    -0.75100
O37         O  0.74150474  0.81040638  0.94781734    -0.74400
O38         O  0.67581562  0.70935405  0.99328380    -0.74900
O39         O  0.68964167  0.69071389  0.91668867    -0.74800
O40         O  0.71886229  0.64889777  0.94905613    -0.74600
C41         C  0.80623371  0.66787793  0.01791911     0.77200
C42         C  0.80409912  0.79794507  0.00598126     0.77700
C43         C  0.81372110  0.70521142  0.90887958     0.76600
C44         C  0.70699292  0.81070148  0.95483562     0.77000
C45         C  0.67860240  0.70226289  0.02678045     0.78100
C46         C  0.69334820  0.65751301  0.92773945     0.77200
Zn47       Zn  0.26147563  0.54757985  0.23206559     1.49700
Zn48       Zn  0.23093902  0.46420384  0.24343089     1.49400
Zn49       Zn  0.23371122  0.51817202  0.30648500     1.49100
Zn50       Zn  0.17952256  0.52249288  0.24367688     1.49500
O51         O  0.22870021  0.51429708  0.25563402    -1.84100
O52         O  0.29354571  0.51633627  0.20464509    -0.74700
O53         O  0.19955702  0.44233877  0.28800678    -0.74500
O54         O  0.28116054  0.53535240  0.31836660    -0.74000
O55         O  0.28313758  0.45763484  0.21992030    -0.74700
O56         O  0.29876996  0.56875962  0.27029169    -0.74300
O57         O  0.23063731  0.47085173  0.33006374    -0.74900
O58         O  0.15347668  0.54748331  0.28240500    -0.74300
O59         O  0.19899141  0.45839224  0.19993220    -0.75100
O60         O  0.19376972  0.54725190  0.32745981    -0.74400
O61         O  0.15127116  0.47865635  0.22936534    -0.74900
O62         O  0.17950765  0.54846292  0.19801853    -0.74800
O63         O  0.23408947  0.57394780  0.18894438    -0.74600
C64         C  0.30109199  0.48264810  0.20215988     0.77200
C65         C  0.20222725  0.45375276  0.32112528     0.77700
C66         C  0.30429066  0.55542844  0.30242826     0.76600
C67         C  0.16227204  0.55437746  0.31518241     0.77000
C68         C  0.16500984  0.46424170  0.20101098     0.78100
C69         C  0.20160038  0.56624430  0.17823614     0.77200
Zn70       Zn  0.47767816  0.21142867  0.22263202     1.49700
Zn71       Zn  0.47892873  0.27887826  0.17575813     1.49400
Zn72       Zn  0.45094004  0.28277112  0.25697621     1.49100
Zn73       Zn  0.53556710  0.27337276  0.23299899     1.49500
O74         O  0.48560077  0.26256803  0.22387099    -1.84100
O75         O  0.46986884  0.19647028  0.17254487    -0.74700
O76         O  0.45569759  0.32505908  0.17964043    -0.74500
O77         O  0.44122779  0.24095195  0.29522118    -0.74000
O78         O  0.45456088  0.24609550  0.14171027    -0.74700
O79         O  0.43784627  0.19703978  0.25471454    -0.74300
O80         O  0.42114420  0.32366627  0.23002491    -0.74900
O81         O  0.53507353  0.29582802  0.28713877    -0.74300
O82         O  0.52368105  0.28984666  0.15023482    -0.75100
O83         O  0.47684304  0.31365881  0.28979016    -0.74400
O84         O  0.54974810  0.31545812  0.19796888    -0.74900
O85         O  0.55880408  0.22465712  0.21014994    -0.74800
O86         O  0.52174878  0.18635542  0.23759115    -0.74600
C87         C  0.46053460  0.21204920  0.14308360     0.77200
C88         C  0.43285009  0.33975168  0.20080089     0.77700
C89         C  0.44244353  0.20677600  0.28754554     0.76600
C90         C  0.50873829  0.31393631  0.30228141     0.77000
C91         C  0.54305920  0.31490172  0.16372071     0.78100
C92         C  0.54490003  0.19228353  0.21261670     0.77200
Zn93       Zn  0.25821894  0.23981029  0.54960386     1.49700
Zn94       Zn  0.26440183  0.18112606  0.49329843     1.49400
Zn95       Zn  0.20529290  0.23315277  0.48210697     1.49100
Zn96       Zn  0.27926598  0.26190949  0.46989613     1.49500
O97         O  0.25200042  0.22957714  0.49882633    -1.84100
O98         O  0.29657651  0.20073678  0.56533497    -0.74700
O99         O  0.22770688  0.15386288  0.46644040    -0.74500
O100        O  0.17505784  0.21623736  0.52077612    -0.74000
O101        O  0.26300454  0.15729432  0.54130758    -0.74700
O102        O  0.20662020  0.22398624  0.57216386    -0.74300
O103        O  0.19415569  0.19830464  0.44268134    -0.74900
O104        O  0.24617385  0.30975500  0.46256681    -0.74300
O105        O  0.31395354  0.18156936  0.47224804    -0.75100
O106        O  0.19306278  0.28385582  0.47607986    -0.74400
O107        O  0.31409388  0.23203906  0.43703404    -0.74900
O108        O  0.31652998  0.27883276  0.50249878    -0.74800
O109        O  0.28005599  0.29486462  0.54732861    -0.74600
C110        C  0.29053337  0.16660372  0.55935352     0.77200
C111        C  0.19977926  0.16451697  0.44941370     0.77700
C112        C  0.17779370  0.21314461  0.55500316     0.76600
C113        C  0.21207311  0.31241575  0.47082010     0.77000
C114        C  0.32934807  0.20260071  0.44899509     0.78100
C115        C  0.30603563  0.30284914  0.52465474     0.77200
Zn116      Zn  0.75848543  0.47168785  0.22786466     1.49700
Zn117      Zn  0.73056673  0.48752287  0.30276936     1.49400
Zn118      Zn  0.72228360  0.55001124  0.24546635     1.49100
Zn119      Zn  0.67554317  0.47924186  0.24496450     1.49500
O120        O  0.72242720  0.49814609  0.25382662    -1.84100
O121        O  0.80298842  0.45915952  0.26274399    -0.74700
O122        O  0.71097311  0.52667119  0.33083011    -0.74500
O123        O  0.77390974  0.56260593  0.22457719    -0.74000
O124        O  0.78193754  0.48743524  0.31209914    -0.74700
O125        O  0.78626184  0.50733241  0.20230742    -0.74300
O126        O  0.70211847  0.57431867  0.29414500    -0.74900
O127        O  0.64486882  0.51507573  0.21940590    -0.74300
O128        O  0.70199802  0.44525376  0.32183784    -0.75100
O129        O  0.68534398  0.55827661  0.20462990    -0.74400
O130        O  0.65291191  0.46306201  0.29121451    -0.74900
O131        O  0.67909797  0.43906530  0.20924099    -0.74800
O132        O  0.73162620  0.45068442  0.18205489    -0.74600
C133        C  0.80842506  0.47492937  0.29389623     0.77200
C134        C  0.69916805  0.55862894  0.32555162     0.77700
C135        C  0.79354272  0.54099704  0.20492331     0.76600
C136        C  0.65456281  0.54248998  0.20029107     0.77000
C137        C  0.66762985  0.44764106  0.31854013     0.78100
C138        C  0.69728125  0.44455122  0.18007780     0.77200
Zn139      Zn  0.00847904  0.19734478  0.26666548     1.49700
Zn140      Zn  0.98844138  0.24773345  0.33272145     1.49400
Zn141      Zn  0.05445217  0.26429244  0.28547227     1.49100
Zn142      Zn  0.97426766  0.27245441  0.25089747     1.49500
O143        O  0.00574633  0.24696398  0.28314819    -1.84100
O144        O  0.97616551  0.16457575  0.29527151    -0.74700
O145        O  0.02347232  0.27151790  0.36872893    -0.74500
O146        O  0.07838668  0.21745105  0.30933598    -0.74000
O147        O  0.97078584  0.19823837  0.34603513    -0.74700
O148        O  0.05760693  0.17872665  0.26922194    -0.74300
O149        O  0.05772903  0.30013686  0.32723644    -0.74900
O150        O  0.00491740  0.30399698  0.22119131    -0.74300
O151        O  0.94655388  0.28099129  0.33655181    -0.75100
O152        O  0.06295299  0.29357202  0.23478143    -0.74400
O153        O  0.94984946  0.31165343  0.28421861    -0.74900
O154        O  0.95566909  0.23721101  0.20825211    -0.74800
O155        O  0.99705747  0.19401768  0.21650754    -0.74600
C156        C  0.96495117  0.16909133  0.32779182     0.77200
C157        C  0.04653281  0.29635902  0.36018839     0.77700
C158        C  0.07005009  0.18447444  0.30063843     0.76600
C159        C  0.03837794  0.30948617  0.21497327     0.77000
C160        C  0.94481920  0.31091961  0.31898814     0.78100
C161        C  0.97381863  0.20926825  0.19648872     0.77200
Zn162      Zn  0.77328763  0.99276713  0.29762039     1.49700
Zn163      Zn  0.83047609  0.00781672  0.24148803     1.49400
Zn164      Zn  0.74903769  0.99064480  0.22035070     1.49100
Zn165      Zn  0.77356849  0.06601962  0.25128253     1.49500
O166        O  0.78140716  0.01460930  0.25229567    -1.84100
O167        O  0.80966638  0.95418826  0.31094056    -0.74700
O168        O  0.83267659  0.98379361  0.19407413    -0.74500
O169        O  0.70148745  0.97651845  0.24999231    -0.74000
O170        O  0.85450770  0.98257567  0.28146244    -0.74700
O171        O  0.72186324  0.98541027  0.30649271    -0.74300
O172        O  0.77763013  0.95945842  0.18365351    -0.74900
O173        O  0.71957413  0.06932382  0.23019910    -0.74300
O174        O  0.85723688  0.05370563  0.23381911    -0.75100
O175        O  0.73243850  0.02862721  0.18763065    -0.74400
O176        O  0.81032501  0.08323719  0.21137031    -0.74900
O177        O  0.79038957  0.08201891  0.30517795    -0.74800
O178        O  0.78602349  0.02757698  0.33273349    -0.74600
C179        C  0.84341640  0.96209564  0.30721372     0.77200
C180        C  0.81058100  0.96639730  0.17389163     0.77700
C181        C  0.69584793  0.98020928  0.28456412     0.76600
C182        C  0.71039253  0.05124852  0.20123693     0.77000
C183        C  0.84403934  0.07442642  0.20963673     0.78100
C184        C  0.79504055  0.06082910  0.33311556     0.77200
Zn185      Zn  0.70225514  0.78879119  0.48272781     1.49700
Zn186      Zn  0.75690040  0.78314340  0.54968869     1.49400
Zn187      Zn  0.76784151  0.75245094  0.46643948     1.49100
Zn188      Zn  0.75992113  0.83659712  0.48844299     1.49500
O189        O  0.74927235  0.78771258  0.49847786    -1.84100
O190        O  0.67942656  0.81820380  0.51777097    -0.74700
O191        O  0.78684224  0.73168764  0.55466956    -0.74500
O192        O  0.72633495  0.71254054  0.45624755    -0.74000
O193        O  0.70676255  0.80562380  0.57073732    -0.74700
O194        O  0.68176524  0.74087152  0.48521995    -0.74300
O195        O  0.79718319  0.72122936  0.49533119    -0.74900
O196        O  0.80651837  0.83362499  0.46713929    -0.74300
O197        O  0.79254370  0.82341031  0.56497806    -0.75100
O198        O  0.81134841  0.77868663  0.44004390    -0.74400
O199        O  0.76686574  0.86688797  0.53198739    -0.74900
O200        O  0.72373832  0.86230643  0.45917006    -0.74800
O201        O  0.69375790  0.81508352  0.43649504    -0.74600
C202        C  0.68265642  0.82311284  0.55168181     0.77200
C203        C  0.80264166  0.71363065  0.52843865     0.77700
C204        C  0.69498409  0.71177835  0.47239878     0.76600
C205        C  0.82482907  0.80980855  0.45018583     0.77000
C206        C  0.78903708  0.85716832  0.55643020     0.78100
C207        C  0.69775734  0.84945176  0.44051243     0.77200
C208        C  0.94330098  0.90731414  0.41563296    -0.02400
C209        C  0.89514810  0.09621750  0.44511701    -0.02400
C210        C  0.90446531  0.94954232  0.61755516    -0.02400
C211        C  0.08497727  0.07206803  0.40822183    -0.02400
C212        C  0.06560360  0.10429741  0.59720957    -0.02400
C213        C  0.08517964  0.91343908  0.57600232    -0.02400
Zn214      Zn  0.00582027  0.00514897  0.56486181     1.49700
Zn215      Zn  0.00272461  0.06233080  0.49740453     1.49400
Zn216      Zn  0.03010493  0.97653942  0.47863174     1.49100
Zn217      Zn  0.94275997  0.99456503  0.50418298     1.49500
O218        O  0.99567414  0.00877606  0.51042402    -1.84100
O219        O  0.01868899  0.05725381  0.58641494    -0.74700
O220        O  0.03879099  0.06556740  0.45490756    -0.74500
O221        O  0.06394806  0.94453761  0.51731786    -0.74000
O222        O  0.03208033  0.09126795  0.53835017    -0.74700
O223        O  0.05097424  0.97040872  0.57123067    -0.74300
O224        O  0.06175370  0.01207041  0.43886531    -0.74900
O225        O  0.93864350  0.95131091  0.46655285    -0.74300
O226        O  0.95334350  0.08595573  0.47795054    -0.75100
O227        O  0.99510526  0.93875765  0.44801007    -0.74400
O228        O  0.91345032  0.03971856  0.48003969    -0.74900
O229        O  0.92109744  0.97387331  0.55461353    -0.74800
O230        O  0.96262779  0.98043419  0.59716092    -0.74600
C231        C  0.03531285  0.08525501  0.57267062     0.77200
C232        C  0.06004268  0.04734313  0.43417707     0.77700
C233        C  0.06828723  0.94599109  0.55256512     0.76600
C234        C  0.96033982  0.93263527  0.44625757     0.77000
C235        C  0.92170334  0.07271223  0.46997477     0.78100
C236        C  0.93071288  0.96910516  0.58805278     0.77200
Zn237      Zn  0.70748812  0.29143107  0.53686894     1.49700
Zn238      Zn  0.76911101  0.34139287  0.52857814     1.49400
Zn239      Zn  0.77724478  0.25712163  0.54425911     1.49100
Zn240      Zn  0.75781247  0.28870503  0.46387241     1.49500
O241        O  0.75456288  0.29421625  0.51633899    -1.84100
O242        O  0.69521218  0.32637607  0.57692996    -0.74700
O243        O  0.81560534  0.33645861  0.55156661    -0.74500
O244        O  0.74050179  0.21195285  0.54815732    -0.74000
O245        O  0.73147323  0.36884690  0.55360561    -0.74700
O246        O  0.68897150  0.24104769  0.53756624    -0.74300
O247        O  0.81847758  0.28026568  0.57591928    -0.74900
O248        O  0.78901373  0.23871843  0.45617321    -0.74300
O249        O  0.77973384  0.37259863  0.48714100    -0.75100
O250        O  0.81051910  0.23326835  0.51287809    -0.74400
O251        O  0.78900035  0.33191506  0.44351526    -0.74900
O252        O  0.70331322  0.30093698  0.44627112    -0.74800
O253        O  0.67847274  0.31218273  0.50093588    -0.74600
C254        C  0.70258278  0.35994161  0.57019527     0.77200
C255        C  0.83288919  0.31161057  0.56816832     0.77700
C256        C  0.70656873  0.21132983  0.53940475     0.76600
C257        C  0.81062478  0.22377319  0.47984800     0.77000
C258        C  0.79249563  0.36448247  0.45620874     0.78100
C259        C  0.67757755  0.31398419  0.46668076     0.77200
Zn260      Zn  0.01742195  0.77113391  0.72429788     1.49700
Zn261      Zn  0.94309410  0.77069192  0.68320443     1.49400
Zn262      Zn  0.95710079  0.71114606  0.73265560     1.49100
Zn263      Zn  0.94500489  0.78571803  0.76815645     1.49500
O264        O  0.96666942  0.76134050  0.72765848    -1.84100
O265        O  0.02072961  0.81411328  0.68951344    -0.74700
O266        O  0.93730770  0.72523659  0.65735697    -0.74500
O267        O  0.99490088  0.68537830  0.70821223    -0.74000
O268        O  0.97220901  0.80484597  0.65431887    -0.74700
O269        O  0.03961542  0.72446915  0.69657828    -0.74300
O270        O  0.91663321  0.69108838  0.70277308    -0.74900
O271        O  0.94636229  0.74833773  0.81307101    -0.74300
O272        O  0.89734014  0.79326148  0.69680612    -0.75100
O273        O  0.96128631  0.69775903  0.78286628    -0.74400
O274        O  0.91103518  0.82546049  0.74508843    -0.74900
O275        O  0.98029831  0.81990821  0.78710949    -0.74800
O276        O  0.03245562  0.79129680  0.77700921    -0.74600
C277        C  0.00063013  0.82273133  0.66244611     0.77200
C278        C  0.92616699  0.69457592  0.66937253     0.77700
C279        C  0.02429787  0.69290029  0.69208547     0.76600
C280        C  0.95856322  0.71519463  0.81262714     0.77000
C281        C  0.90524482  0.82409339  0.71056730     0.78100
C282        C  0.01280012  0.81378233  0.79596055     0.77200
C283        C  0.08408814  0.57052387  0.60855615    -0.02400
C284        C  0.10692777  0.41980540  0.44272387    -0.02400
C285        C  0.89995712  0.60006408  0.55584448    -0.02400
C286        C  0.91387509  0.44570836  0.39413496    -0.02400
C287        C  0.94568909  0.41303969  0.60145632    -0.02400
C288        C  0.05785933  0.61529508  0.41542220    -0.02400
Zn289      Zn  0.00637379  0.56096295  0.51351798     1.49700
Zn290      Zn  0.01357813  0.50135691  0.44756040     1.49400
Zn291      Zn  0.03444738  0.47718626  0.53433820     1.49100
Zn292      Zn  0.94712318  0.49273582  0.50696578     1.49500
O293        O  0.00068654  0.50712338  0.50099840    -1.84100
O294        O  0.02702914  0.59513875  0.47295169    -0.74700
O295        O  0.05539055  0.46295446  0.44169264    -0.74500
O296        O  0.06235731  0.51397746  0.57338958    -0.74000
O297        O  0.03406681  0.55302437  0.42997557    -0.74700
O298        O  0.04181377  0.56853595  0.55684875    -0.74300
O299        O  0.07386213  0.44852032  0.49780365    -0.74900
O300        O  0.94283976  0.45218357  0.54701463    -0.74300
O301        O  0.96956527  0.47985096  0.41489468    -0.75100
O302        O  0.99901545  0.44077833  0.56704630    -0.74400
O303        O  0.92764390  0.46971623  0.45724893    -0.74900
O304        O  0.91435286  0.53777763  0.52731042    -0.74800
O305        O  0.95671472  0.58056434  0.52872347    -0.74600
C306        C  0.03852056  0.58642724  0.44126011     0.77200
C307        C  0.07705208  0.44497012  0.46247501     0.77700
C308        C  0.06173962  0.54919218  0.57799833     0.76600
C309        C  0.96409705  0.43525381  0.56906434     0.77000
C310        C  0.93803510  0.46686928  0.42372142     0.78100
C311        C  0.92393834  0.57075924  0.53522249     0.77200
C312        C  0.60409380  0.41842723  0.05634814    -0.02400
C313        C  0.56222784  0.60648427  0.08795465    -0.02400
C314        C  0.43802836  0.40264418  0.90614795    -0.02400
C315        C  0.40872681  0.60268137  0.92527136    -0.02400
C316        C  0.57733899  0.55792553  0.88276376    -0.02400
C317        C  0.40097124  0.44428346  0.08799223    -0.02400
Zn318      Zn  0.51008725  0.49788918  0.04930969     1.49700
Zn319      Zn  0.44508405  0.49797179  0.98751804     1.49400
Zn320      Zn  0.50881581  0.55918708  0.98404077     1.49100
Zn321      Zn  0.52955374  0.47094218  0.96371115     1.49500
O322        O  0.49894774  0.50593404  0.99573604    -1.84100
O323        O  0.46439855  0.47088418  0.07577685    -0.74700
O324        O  0.42012085  0.54403898  0.95975239    -0.74500
O325        O  0.53067999  0.58918708  0.02915975    -0.74000
O326        O  0.42027316  0.48506430  0.03769618    -0.74700
O327        O  0.53140630  0.54714294  0.07300711    -0.74300
O328        O  0.46396436  0.58583407  0.96043214    -0.74900
O329        O  0.55557264  0.50333484  0.92065190    -0.74300
O330        O  0.43664699  0.45099614  0.95444641    -0.75100
O331        O  0.54469707  0.55972572  0.94084929    -0.74400
O332        O  0.49174434  0.43476170  0.93520397    -0.74900
O333        O  0.56951956  0.44159554  0.99970687    -0.74800
O334        O  0.55347728  0.46246062  0.05429501    -0.74600
C335        C  0.43042411  0.46940622  0.06740907     0.77200
C336        C  0.43161102  0.57645401  0.95108824     0.77700
C337        C  0.53970569  0.57978663  0.06179593     0.76600
C338        C  0.55877087  0.53841294  0.91678763     0.77000
C339        C  0.45669006  0.43058899  0.93405315     0.78100
C340        C  0.57444785  0.44234099  0.03497021     0.77200
Zn341      Zn  0.26340522  0.47594919  0.76127629     1.49700
Zn342      Zn  0.24326016  0.55935123  0.77927625     1.49400
Zn343      Zn  0.32314335  0.53531130  0.76134720     1.49100
Zn344      Zn  0.27214267  0.54412244  0.70776603     1.49500
O345        O  0.27424031  0.52648177  0.75478662    -1.84100
O346        O  0.21008508  0.48023291  0.78586319    -0.74700
O347        O  0.27610302  0.59286090  0.81183127    -0.74500
O348        O  0.34109327  0.50075016  0.79811017    -0.74000
O349        O  0.22471224  0.52951120  0.81841889    -0.74700
O350        O  0.29927175  0.45639955  0.79977567    -0.74300
O351        O  0.32374924  0.58614962  0.77683720    -0.74900
O352        O  0.31343438  0.57803238  0.69628835    -0.74300
O353        O  0.19646107  0.56533011  0.74472669    -0.75100
O354        O  0.35070095  0.53466512  0.71574232    -0.74400
O355        O  0.22219626  0.55161928  0.69154268    -0.74900
O356        O  0.28737554  0.50463639  0.67991553    -0.74800
O357        O  0.28112035  0.45227573  0.70999524    -0.74600
C358        C  0.20264062  0.50404538  0.81114727     0.77200
C359        C  0.31064540  0.58932063  0.80846673     0.77700
C360        C  0.32928142  0.47053876  0.81059995     0.76600
C361        C  0.34479245  0.56284561  0.69632732     0.77000
C362        C  0.19374411  0.55656393  0.71061256     0.78100
C363        C  0.29255315  0.47073500  0.68196571     0.77200
C364        C  0.60816842  0.59418596  0.45057307    -0.02400
C365        C  0.59269436  0.46127382  0.61161242    -0.02400
C366        C  0.44356338  0.61988011  0.58763492    -0.02400
C367        C  0.41871284  0.58017652  0.40910557    -0.02400
C368        C  0.55463185  0.39987611  0.42034581    -0.02400
C369        C  0.39030966  0.42113722  0.56120645    -0.02400
Zn370      Zn  0.53096541  0.54359644  0.53693006     1.49700
Zn371      Zn  0.44681328  0.52134901  0.50905741     1.49400
Zn372      Zn  0.51498630  0.51403899  0.45197418     1.49100
Zn373      Zn  0.50561071  0.45678255  0.52245125     1.49500
O374        O  0.50020626  0.50896052  0.50566000    -1.84100
O375        O  0.49584265  0.58485111  0.56028801    -0.74700
O376        O  0.42831737  0.53519877  0.45752024    -0.74500
O377        O  0.56128738  0.54627349  0.44682485    -0.74000
O378        O  0.43997775  0.56772993  0.54400628    -0.74700
O379        O  0.57004984  0.57027128  0.50204278    -0.74300
O380        O  0.47625426  0.54527323  0.42236265    -0.74900
O381        O  0.52907078  0.42532092  0.47858211    -0.74300
O382        O  0.41307025  0.47818697  0.52879136    -0.75100
O383        O  0.52795747  0.46197305  0.42970297    -0.74400
O384        O  0.45401296  0.43576293  0.54054881    -0.74900
O385        O  0.54212850  0.45527230  0.56717732    -0.74800
O386        O  0.55993617  0.51230491  0.57878846    -0.74600
C387        C  0.46105967  0.58972346  0.56177618     0.77200
C388        C  0.44237655  0.55015424  0.42893982     0.77700
C389        C  0.57854726  0.56837567  0.46777442     0.76600
C390        C  0.53599519  0.43085372  0.44430735     0.77000
C391        C  0.42059465  0.44674845  0.54230081     0.78100
C392        C  0.56182315  0.47759907  0.58592597     0.77200
Zn393      Zn  0.44308261  0.76469332  0.76381387     1.49700
Zn394      Zn  0.49155947  0.76083598  0.82863886     1.49400
Zn395      Zn  0.51618949  0.73413302  0.74878891     1.49100
Zn396      Zn  0.51608857  0.81305388  0.77460267     1.49500
O397        O  0.49318909  0.76813231  0.77848683    -1.84100
O398        O  0.42537421  0.72272963  0.79748579    -0.74700
O399        O  0.51300007  0.71341035  0.83450710    -0.74500
O400        O  0.47718453  0.70157842  0.73297320    -0.74000
O401        O  0.44108095  0.75556615  0.84469453    -0.74700
O402        O  0.44449255  0.74476774  0.70856311    -0.74300
O403        O  0.54137558  0.69622394  0.78303568    -0.74900
O404        O  0.52437818  0.82212887  0.72245654    -0.74300
O405        O  0.51642347  0.79864940  0.85756550    -0.75100
O406        O  0.52688419  0.76524348  0.69986240    -0.74400
O407        O  0.55222301  0.82429651  0.81560160    -0.74900
O408        O  0.47834276  0.84576285  0.78813278    -0.74800
O409        O  0.42519134  0.81588215  0.78287284    -0.74600
C410        C  0.43100871  0.72501882  0.83184827     0.77200
C411        C  0.53116596  0.69028106  0.81636115     0.77700
C412        C  0.46134079  0.71405144  0.70520361     0.76600
C413        C  0.52392498  0.80030266  0.69529642     0.77000
C414        C  0.54170078  0.82079133  0.84895679     0.78100
C415        C  0.44443130  0.84354761  0.79366781     0.77200
Zn416      Zn  0.32149471  0.97053927  0.26007393     1.49700
Zn417      Zn  0.27388395  0.97312481  0.20359893     1.49400
Zn418      Zn  0.23874922  0.95727537  0.27560933     1.49100
Zn419      Zn  0.27379501  0.03893695  0.26161804     1.49500
O420        O  0.27462807  0.98777674  0.25244967    -1.84100
O421        O  0.35023961  0.96810609  0.21585639    -0.74700
O422        O  0.22406053  0.97073579  0.18714656    -0.74500
O423        O  0.26652719  0.92989339  0.31733654    -0.74000
O424        O  0.30892342  0.93266626  0.19005348    -0.74700
O425        O  0.31188512  0.92194669  0.28005654    -0.74300
O426        O  0.20030192  0.94238322  0.23575893    -0.74900
O427        O  0.22078878  0.04646418  0.28648320    -0.74300
O428        O  0.29560972  0.01140636  0.17694290    -0.75100
O429        O  0.20802655  0.98917140  0.30398014    -0.74400
O430        O  0.29668074  0.06148081  0.21123968    -0.74900
O431        O  0.31142068  0.04842839  0.30253544    -0.74800
O432        O  0.34735172  0.00056036  0.29466977    -0.74600
C433        C  0.34147972  0.94492673  0.19187063     0.77200
C434        C  0.19708758  0.95680449  0.20369208     0.77700
C435        C  0.30077130  0.92645794  0.31244501     0.76600
C436        C  0.20086159  0.02298466  0.30453655     0.77000
C437        C  0.30517779  0.04413594  0.18145341     0.78100
C438        C  0.33964655  0.02988052  0.31101256     0.77200
Zn439      Zn  0.27414628  0.74827017  0.04295359     1.49700
Zn440      Zn  0.25777692  0.83161356  0.03691061     1.49400
Zn441      Zn  0.27069396  0.79248330  0.96602604     1.49100
Zn442      Zn  0.20343643  0.77448501  0.00403620     1.49500
O443        O  0.25254907  0.78533748  0.01367605    -1.84100
O444        O  0.31827750  0.77626697  0.06735891    -0.74700
O445        O  0.28590251  0.86640833  0.00716633    -0.74500
O446        O  0.29283681  0.74131546  0.95247703    -0.74000
O447        O  0.28733487  0.82538013  0.08141063    -0.74700
O448        O  0.30043636  0.71840117  0.00851831    -0.74300
O449        O  0.31280999  0.82719281  0.96998234    -0.74900
O450        O  0.18960438  0.77728292  0.95280733    -0.74300
O451        O  0.21075024  0.85351229  0.04594913    -0.75100
O452        O  0.22663719  0.82259437  0.94324964    -0.74400
O453        O  0.17194471  0.81026251  0.02806643    -0.74900
O454        O  0.19226927  0.72635172  0.01779096    -0.74800
O455        O  0.23267754  0.71043617  0.06029607    -0.74600
C456        C  0.31787958  0.81058008  0.07507451     0.77200
C457        C  0.31184772  0.85809322  0.98604594     0.77700
C458        C  0.30604564  0.71695651  0.97437439     0.76600
C459        C  0.19390135  0.81061794  0.94496333     0.77000
C460        C  0.17862061  0.84199131  0.04057694     0.78100
C461        C  0.20331681  0.70438376  0.04176979     0.77200
C462        C  0.40894131  0.94613594  0.91125661    -0.02400
C463        C  0.60711148  0.92436073  0.95291760    -0.02400
C464        C  0.44711643  0.90138465  0.08216548    -0.02400
C465        C  0.39786944  0.10112563  0.06064385    -0.02400
C466        C  0.57077604  0.10777837  0.90990889    -0.02400
C467        C  0.58714089  0.08244927  0.10672661    -0.02400
Zn468      Zn  0.50781108  0.06737890  0.01134802     1.49700
Zn469      Zn  0.44829394  0.00073273  0.00706469     1.49400
Zn470      Zn  0.51381555  0.00253263  0.95005885     1.49100
Zn471      Zn  0.53410208  0.98428967  0.03830332     1.49500
O472        O  0.50202349  0.01365196  0.00254670    -1.84100
O473        O  0.45602856  0.08721679  0.02788496    -0.74700
O474        O  0.42422105  0.99298882  0.95632268    -0.74500
O475        O  0.53512926  0.05028645  0.92301264    -0.74000
O476        O  0.41692870  0.04107159  0.03285371    -0.74700
O477        O  0.53275497  0.09389527  0.96527291    -0.74300
O478        O  0.47057986  0.97392800  0.92322552    -0.74900
O479        O  0.57528937  0.95401616  0.00745372    -0.74300
O480        O  0.44321138  0.95200181  0.03745383    -0.75100
O481        O  0.55530952  0.96524190  0.95127314    -0.74400
O482        O  0.49812768  0.94295495  0.06187115    -0.74900
O483        O  0.56014053  0.02306655  0.07854814    -0.74800
O484        O  0.54416873  0.07688820  0.05521306    -0.74600
C485        C  0.42433941  0.07491619  0.03802335     0.77200
C486        C  0.43613519  0.97433079  0.92920275     0.77700
C487        C  0.54305642  0.08324344  0.93323115     0.76600
C488        C  0.57752000  0.94869192  0.97259458     0.77000
C489        C  0.46427501  0.93330120  0.05835027     0.78100
C490        C  0.56217903  0.05871515  0.07927487     0.77200
Zn491      Zn  0.98484635  0.75474495  0.17638550     1.49700
Zn492      Zn  0.01844859  0.77527051  0.25331837     1.49400
Zn493      Zn  0.93460324  0.77442738  0.23419530     1.49100
Zn494      Zn  0.97827931  0.70204756  0.23859074     1.49500
O495        O  0.98069694  0.75243945  0.22762019    -1.84100
O496        O  0.01996614  0.79248562  0.16357849    -0.74700
O497        O  0.99794612  0.81319885  0.28262438    -0.74500
O498        O  0.93335660  0.81675295  0.19747834    -0.74000
O499        O  0.04096124  0.81284080  0.21687663    -0.74700
O500        O  0.94083530  0.77577656  0.15441833    -0.74300
O501        O  0.93927709  0.79801830  0.28817631    -0.74900
O502        O  0.92794033  0.68730587  0.24231059    -0.74300
O503        O  0.03091903  0.74122588  0.29926954    -0.75100
O504        O  0.90504594  0.73035887  0.20848287    -0.74400
O505        O  0.99432535  0.69466798  0.28608780    -0.74900
O506        O  0.00336535  0.67176068  0.20194212    -0.74800
O507        O  0.99685781  0.70773902  0.15345652    -0.74600
C508        C  0.03306708  0.81804576  0.18301809     0.77200
C509        C  0.96801160  0.81556290  0.29923646     0.77700
C510        C  0.93448573  0.80868565  0.16360234     0.76600
C511        C  0.91369417  0.69646079  0.21257229     0.77000
C512        C  0.01363531  0.71172307  0.30871813     0.78100
C513        C  0.00541276  0.67725357  0.16768315     0.77200
Zn514      Zn  0.72332278  0.27034538  0.94143318     1.49700
Zn515      Zn  0.74855826  0.23542534  0.01969249     1.49400
Zn516      Zn  0.72553966  0.18430735  0.95390500     1.49100
Zn517      Zn  0.79232416  0.23006498  0.94334131     1.49500
O518        O  0.74599352  0.23065831  0.96669971    -1.84100
O519        O  0.70354749  0.30090803  0.97744391    -0.74700
O520        O  0.71686551  0.19505360  0.04309939    -0.74500
O521        O  0.68342908  0.19305098  0.92163171    -0.74000
O522        O  0.72414824  0.28732146  0.03294937    -0.74700
O523        O  0.67039210  0.25185374  0.92998932    -0.74300
O524        O  0.70681321  0.15768340  0.99672540    -0.74900
O525        O  0.79916397  0.19010413  0.90704485    -0.74300
O526        O  0.80121736  0.21775978  0.03361548    -0.75100
O527        O  0.76396353  0.15110484  0.93725422    -0.74400
O528        O  0.82432765  0.21015161  0.97783721    -0.74900
O529        O  0.81278761  0.27952563  0.93717350    -0.74800
O530        O  0.76238773  0.31215585  0.93191049    -0.74600
C531        C  0.70506390  0.30734622  0.01105972     0.77200
C532        C  0.70361270  0.16524669  0.03038351     0.77700
C533        C  0.66047497  0.21809373  0.92897690     0.76600
C534        C  0.79342160  0.15829472  0.92071301     0.77000
C535        C  0.82584025  0.20548885  0.01172177     0.78100
C536        C  0.79689061  0.31029881  0.93763918     0.77200
Zn537      Zn  0.23413646  0.93692660  0.75558607     1.49700
Zn538      Zn  0.23585790  0.98640609  0.68660608     1.49400
Zn539      Zn  0.17834175  0.99174905  0.74615989     1.49100
Zn540      Zn  0.25836307  0.02153792  0.76085040     1.49500
O541        O  0.22851455  0.98563696  0.73789171    -1.84100
O542        O  0.20827345  0.90820750  0.71278171    -0.74700
O543        O  0.19655592  0.01123051  0.65930124    -0.74500
O544        O  0.15317696  0.94756122  0.76488818    -0.74000
O545        O  0.23757884  0.93641205  0.66902909    -0.74700
O546        O  0.20016284  0.93349028  0.79852821    -0.74300
O547        O  0.15395021  0.00758415  0.70231055    -0.74900
O548        O  0.22577878  0.05080587  0.79908612    -0.74300
O549        O  0.28364168  0.00305327  0.67694493    -0.75100
O550        O  0.17216824  0.02453416  0.78748284    -0.74400
O551        O  0.30233453  0.03472819  0.72510524    -0.74900
O552        O  0.28815905  0.99485643  0.79447836    -0.74800
O553        O  0.28597774  0.93543314  0.77953660    -0.74600
C554        C  0.20995398  0.91864831  0.67928530     0.77200
C555        C  0.16359888  0.01398751  0.66962511     0.77700
C556        C  0.16610851  0.93855430  0.79564944     0.76600
C557        C  0.19224272  0.04415641  0.80769789     0.77000
C558        C  0.30862266  0.01946114  0.69390015     0.78100
C559        C  0.29979967  0.96248906  0.79769864     0.77200
C560        C  0.11165181  0.09282879  0.94109308    -0.02400
C561        C  0.07475100  0.94006252  0.10197755    -0.02400
C562        C  0.93132882  0.11549510  0.07763639    -0.02400
C563        C  0.89611828  0.91325761  0.05016931    -0.02400
C564        C  0.07225278  0.90556770  0.91607329    -0.02400
C565        C  0.90967415  0.06087291  0.89644609    -0.02400
Zn566      Zn  0.99619743  0.06010383  0.98388571     1.49700
Zn567      Zn  0.97207405  0.97275625  0.96487252     1.49400
Zn568      Zn  0.05464419  0.99718407  0.99729096     1.49100
Zn569      Zn  0.98189518  0.00272453  0.05153190     1.49500
O570        O  0.00049497  0.00763350  0.99899497    -1.84100
O571        O  0.95757323  0.06157481  0.94313813    -0.74700
O572        O  0.01259379  0.93542739  0.93854955    -0.74500
O573        O  0.08918643  0.03995309  0.97861600    -0.74000
O574        O  0.94125010  0.00593539  0.92535307    -0.74700
O575        O  0.04711259  0.07869794  0.95989367    -0.74300
O576        O  0.06522138  0.95383357  0.96197638    -0.74900
O577        O  0.02315510  0.98117141  0.08605810    -0.74300
O578        O  0.93205658  0.94290987  0.99841513    -0.75100
O579        O  0.06992545  0.97876612  0.04768071    -0.74400
O580        O  0.94129648  0.96310615  0.05480521    -0.74900
O581        O  0.95679180  0.05194325  0.06939283    -0.74800
O582        O  0.97262489  0.09311149  0.02747943    -0.74600
C583        C  0.93821984  0.04117800  0.92240431     0.77200
C584        C  0.04781055  0.93224383  0.94059590     0.77700
C585        C  0.08095989  0.06901770  0.96088568     0.76600
C586        C  0.05600654  0.97114985  0.07898221     0.77000
C587        C  0.92398486  0.94196836  0.03293077     0.78100
C588        C  0.95571194  0.08516500  0.05767157     0.77200
Zn589      Zn  0.26389285  0.32915530  0.94581893     1.49700
Zn590      Zn  0.25701416  0.28258422  0.01730376     1.49400
Zn591      Zn  0.20058808  0.28254320  0.95107503     1.49100
Zn592      Zn  0.27650990  0.24602497  0.94236621     1.49500
O593        O  0.25000406  0.28458585  0.96540629    -1.84100
O594        O  0.29992439  0.35023171  0.97785891    -0.74700
O595        O  0.20828584  0.30745691  0.03866935    -0.74500
O596        O  0.18516075  0.32187785  0.91518681    -0.74000
O597        O  0.30137416  0.31608313  0.02805125    -0.74700
O598        O  0.22270363  0.36114468  0.94179415    -0.74300
O599        O  0.17121091  0.30145239  0.99093903    -0.74900
O600        O  0.24022547  0.20136685  0.94126365    -0.74300
O601        O  0.27378698  0.22747212  0.02734072    -0.75100
O602        O  0.18718365  0.23033968  0.94742941    -0.74400
O603        O  0.30964456  0.22661434  0.97858493    -0.74900
O604        O  0.31666639  0.26951526  0.90855449    -0.74800
O605        O  0.28495048  0.31866069  0.89807001    -0.74600
C606        C  0.31372500  0.34247498  0.00843094     0.77200
C607        C  0.17754567  0.31339265  0.02265628     0.77700
C608        C  0.19294272  0.35442605  0.92585960     0.76600
C609        C  0.20602128  0.20117813  0.94918207     0.77000
C610        C  0.29884902  0.21186892  0.00799177     0.78100
C611        C  0.31570653  0.30414285  0.90284945     0.77200
Zn612      Zn  0.82630938  0.54335326  0.73725359     1.49700
Zn613      Zn  0.77187412  0.54811053  0.79688430     1.49400
Zn614      Zn  0.74317845  0.54813257  0.71897869     1.49100
Zn615      Zn  0.77569840  0.47851197  0.74482518     1.49500
O616        O  0.77946714  0.53080185  0.74994706    -1.84100
O617        O  0.85086418  0.56872439  0.77741410    -0.74700
O618        O  0.71903217  0.54564295  0.80741048    -0.74500
O619        O  0.76377009  0.58338870  0.68090259    -0.74000
O620        O  0.80519882  0.58986031  0.81161850    -0.74700
O621        O  0.82183807  0.56693945  0.68981679    -0.74300
O622        O  0.69483233  0.54815593  0.75146741    -0.74900
O623        O  0.72032006  0.47020109  0.72707010    -0.74300
O624        O  0.79400774  0.51180318  0.82655173    -0.75100
O625        O  0.73825542  0.50774013  0.68472100    -0.74400
O626        O  0.79893179  0.46026174  0.79456770    -0.74900
O627        O  0.81138933  0.46809794  0.70233279    -0.74800
O628        O  0.85595857  0.50030309  0.72651079    -0.74600
C629        C  0.83925380  0.58555150  0.80540333     0.77200
C630        C  0.69154634  0.54321421  0.78635613     0.77700
C631        C  0.79669268  0.57947090  0.66968351     0.76600
C632        C  0.71323397  0.48821233  0.69765216     0.77000
C633        C  0.80554824  0.47952630  0.82339619     0.78100
C634        C  0.84439208  0.47955389  0.70142513     0.77200
Zn635      Zn  0.03500146  0.21849263  0.78970172     1.49700
Zn636      Zn  0.96366004  0.26158084  0.77489318     1.49400
Zn637      Zn  0.01826834  0.27419515  0.83524016     1.49100
Zn638      Zn  0.04753218  0.28329640  0.75324077     1.49500
O639        O  0.01379015  0.26252843  0.78568284    -1.84100
O640        O  0.00136374  0.18982181  0.81584601    -0.74700
O641        O  0.94045026  0.29670016  0.81302028    -0.74500
O642        O  0.04900791  0.24046318  0.86398232    -0.74000
O643        O  0.94939951  0.20584570  0.78901707    -0.74700
O644        O  0.08096106  0.22010593  0.81767840    -0.74300
O645        O  0.97101285  0.27518639  0.85998248    -0.74900
O646        O  0.06949784  0.32755689  0.78198367    -0.74300
O647        O  0.96147300  0.28951233  0.72307606    -0.75100
O648        O  0.03604970  0.32336048  0.83342782    -0.74400
O649        O  0.01900111  0.30986962  0.71923624    -0.74900
O650        O  0.06693728  0.24245313  0.71628815    -0.74800
O651        O  0.03865842  0.19574053  0.74285491    -0.74600
C652        C  0.96831042  0.18356442  0.80903287     0.77200
C653        C  0.94740171  0.29675827  0.84726901     0.77700
C654        C  0.07342077  0.21944700  0.85151171     0.76600
C655        C  0.05594830  0.34152118  0.81150134     0.77000
C656        C  0.98655471  0.30978747  0.70818625     0.78100
C657        C  0.05437667  0.20941257  0.71536393     0.77200
C658        C  0.89706360  0.42109017  0.93844095    -0.02400
C659        C  0.08834757  0.46728340  0.90042662    -0.02400
C660        C  0.94200622  0.62274075  0.92143846    -0.02400
C661        C  0.06855754  0.40848619  0.08800009    -0.02400
C662        C  0.90727628  0.58383039  0.09957920    -0.02400
C663        C  0.09398050  0.59955292  0.06826408    -0.02400
Zn664      Zn  0.00826976  0.51493102  0.05942253     1.49700
Zn665      Zn  0.02772269  0.54699201  0.97536742     1.49400
Zn666      Zn  0.00538955  0.45918895  0.99015140     1.49100
Zn667      Zn  0.94296261  0.52300919  0.99776141     1.49500
O668        O  0.99630685  0.51131287  0.00545182    -1.84100
O669        O  0.05454561  0.54649202  0.06426126    -0.74700
O670        O  0.05680888  0.51731490  0.93445281    -0.74500
O671        O  0.03249446  0.42751854  0.03233125    -0.74000
O672        O  0.06624413  0.57393214  0.01104784    -0.74700
O673        O  0.02822739  0.46389841  0.08052068    -0.74300
O674        O  0.04162061  0.46001185  0.94762529    -0.74900
O675        O  0.91352859  0.47722883  0.97454390    -0.74300
O676        O  0.99301639  0.58664257  0.94913002    -0.75100
O677        O  0.95755687  0.43716867  0.96649148    -0.74400
O678        O  0.93672196  0.56815550  0.96208760    -0.74900
O679        O  0.92211677  0.54409098  0.04680476    -0.74800
O680        O  0.96546878  0.54592959  0.08887361    -0.74600
C681        C  0.07287326  0.56991634  0.04549104     0.77200
C682        C  0.05978769  0.48273052  0.92818211     0.77700
C683        C  0.03994312  0.43378734  0.06628619     0.76600
C684        C  0.92420855  0.44604300  0.96180229     0.77000
C685        C  0.95824262  0.59076002  0.94574589     0.78100
C686        C  0.93317172  0.55523538  0.07841219     0.77200
Zn687      Zn  0.53340485  0.76957857  0.32201954     1.49700
Zn688      Zn  0.54874960  0.78505959  0.23789306     1.49400
Zn689      Zn  0.54126707  0.71178459  0.27385027     1.49100
Zn690      Zn  0.47071659  0.76467555  0.26636143     1.49500
O691        O  0.52156357  0.75939731  0.27381058    -1.84100
O692        O  0.58044080  0.79366233  0.31625767    -0.74700
O693        O  0.55348855  0.74776579  0.19331576    -0.74500
O694        O  0.57756543  0.70186716  0.31433580    -0.74000
O695        O  0.57980925  0.82422222  0.26495862    -0.74700
O696        O  0.53738919  0.72622252  0.35212491    -0.74300
O697        O  0.54916897  0.69500139  0.22366857    -0.74900
O698        O  0.45107672  0.71329537  0.28508475    -0.74300
O699        O  0.51608036  0.82046719  0.21750283    -0.75100
O700        O  0.50240516  0.68119991  0.29092263    -0.74400
O701        O  0.46581920  0.78694245  0.21234470    -0.74900
O702        O  0.45305131  0.80410210  0.30310612    -0.74800
O703        O  0.49745619  0.80075137  0.34411553    -0.74600
C704        C  0.57693904  0.82398696  0.29984456     0.77200
C705        C  0.54840261  0.71273446  0.19377786     0.77700
C706        C  0.56287443  0.70396159  0.34606120     0.76600
C707        C  0.46863817  0.68472684  0.29614340     0.77000
C708        C  0.48703912  0.81292538  0.20090864     0.78100
C709        C  0.46752642  0.81363559  0.33345375     0.77200
Zn710      Zn  0.51812493  0.21142981  0.71243084     1.49700
Zn711      Zn  0.54424748  0.27248032  0.75054807     1.49400
Zn712      Zn  0.52040824  0.27217181  0.66811268     1.49100
Zn713      Zn  0.46079216  0.27144000  0.72274340     1.49500
O714        O  0.50999920  0.26006118  0.71598230    -1.84100
O715        O  0.51212750  0.18790945  0.75822513    -0.74700
O716        O  0.57428077  0.31525587  0.72707285    -0.74500
O717        O  0.54358640  0.23318767  0.64014588    -0.74000
O718        O  0.55724935  0.22350646  0.77758544    -0.74700
O719        O  0.56192692  0.19711508  0.68487724    -0.74300
O720        O  0.54759468  0.31607036  0.67206034    -0.74900
O721        O  0.45200380  0.31442982  0.68955595    -0.74300
O722        O  0.51848498  0.29932613  0.78810166    -0.75100
O723        O  0.47707121  0.28704983  0.64178880    -0.74400
O724        O  0.45882853  0.29435279  0.77608955    -0.74900
O725        O  0.43273144  0.22686006  0.69590782    -0.74800
O726        O  0.48219850  0.19469512  0.68247903    -0.74600
C727        C  0.53671870  0.19471600  0.78098623     0.77200
C728        C  0.56620067  0.33129803  0.69677799     0.77700
C729        C  0.55882842  0.20408112  0.65096248     0.76600
C730        C  0.45769648  0.31223761  0.65530918     0.77000
C731        C  0.48564438  0.30646143  0.79560040     0.78100
C732        C  0.44923889  0.20153311  0.67751302     0.77200
Zn733      Zn  0.71790504  0.98185591  0.71006591     1.49700
Zn734      Zn  0.74961382  0.98685352  0.78435523     1.49400
Zn735      Zn  0.73535991  0.05950035  0.75232090     1.49100
Zn736      Zn  0.67022070  0.01422126  0.76220312     1.49500
O737        O  0.71902312  0.01003623  0.75165223    -1.84100
O738        O  0.76730797  0.96653992  0.69774050    -0.74700
O739        O  0.76682732  0.02609976  0.81564259    -0.74500
O740        O  0.71587508  0.07317152  0.69738068    -0.74000
O741        O  0.79517139  0.97524134  0.75097264    -0.74700
O742        O  0.70640513  0.01728162  0.67399316    -0.74300
O743        O  0.79127422  0.05476006  0.76932689    -0.74900
O744        O  0.65593802  0.06470398  0.77126108    -0.74300
O745        O  0.71826664  0.95934417  0.82192681    -0.75100
O746        O  0.70616632  0.07702141  0.79959964    -0.74400
O747        O  0.66799156  0.99060930  0.80753872    -0.74900
O748        O  0.63742055  0.99111161  0.72734981    -0.74800
O749        O  0.67441624  0.94827931  0.70551410    -0.74600
C750        C  0.79604120  0.97315220  0.71582001     0.77200
C751        C  0.79498552  0.03912336  0.80076828     0.77700
C752        C  0.70486376  0.05170447  0.67108246     0.76600
C753        C  0.67171706  0.07242332  0.80090820     0.77000
C754        C  0.68580931  0.97040599  0.82889832     0.78100
C755        C  0.64298945  0.96303528  0.70791640     0.77200
C756        C  0.40817312  0.07105040  0.59634850    -0.02400
C757        C  0.55266236  0.90554158  0.59509556    -0.02400
C758        C  0.60879654  0.09824379  0.54887527    -0.02400
C759        C  0.40238883  0.92293279  0.42637337    -0.02400
C760        C  0.58391216  0.94288149  0.39213211    -0.02400
C761        C  0.44224120  0.10379205  0.40088541    -0.02400
Zn762      Zn  0.51355821  0.01683900  0.54999292     1.49700
Zn763      Zn  0.50611445  0.95401751  0.48642708     1.49400
Zn764      Zn  0.44846024  0.02179869  0.48957413     1.49100
Zn765      Zn  0.53483756  0.03940875  0.46119822     1.49500
O766        O  0.50156999  0.00853435  0.49646990    -1.84100
O767        O  0.52742418  0.96579203  0.57478884    -0.74700
O768        O  0.45712957  0.93341640  0.46423126    -0.74500
O769        O  0.42516453  0.04191566  0.53782521    -0.74000
O770        O  0.52703386  0.92223618  0.53247120    -0.74700
O771        O  0.46931931  0.04400953  0.57913891    -0.74300
O772        O  0.41780281  0.97940394  0.46262828    -0.74900
O773        O  0.49920387  0.07724519  0.43010908    -0.74300
O774        O  0.54180287  0.94921208  0.44268520    -0.75100
O775        O  0.44476456  0.06502133  0.45431971    -0.74400
O776        O  0.56189457  0.00269609  0.42136605    -0.74900
O777        O  0.57586052  0.06814088  0.49557332    -0.74800
O778        O  0.56047721  0.05087591  0.55213174    -0.74600
C779        C  0.53415922  0.93226738  0.56554601     0.77200
C780        C  0.42611706  0.94625397  0.45406154     0.77700
C781        C  0.43634144  0.05160118  0.56972100     0.76600
C782        C  0.46432247  0.08279004  0.43127998     0.77000
C783        C  0.56089561  0.96730341  0.41926265     0.78100
C784        C  0.58166358  0.06929609  0.53063587     0.77200
C785        C  0.67320338  0.10014301  0.63513092    -0.26300
C786        C  0.68591194  0.06460836  0.63709395    -0.14300
C787        C  0.67626186  0.04000932  0.60815346     0.36300
C788        C  0.64910865  0.04971249  0.58238890    -0.25700
C789        C  0.63398612  0.08494471  0.58175679    -0.15000
C790        C  0.65005194  0.11118744  0.60684443     0.37400
N791        N  0.64450448  0.14984405  0.60308423    -0.89200
H792        H  0.68188488  0.12004946  0.65533331     0.18500
H793        H  0.64230207  0.03096358  0.56053858     0.18500
N794        N  0.69475200  0.00551214  0.60436593    -0.88200
H795        H  0.63523777  0.15968937  0.62825406     0.35900
H796        H  0.66987326  0.16225686  0.59909580     0.41000
H797        H  0.72216314  0.01132816  0.59907533     0.40600
H798        H  0.68517826  0.99109286  0.58163854     0.35500
C799        C  0.55912814  0.92113556  0.66557370    -0.26300
C800        C  0.56517403  0.93009743  0.62803067    -0.14300
C801        C  0.59229329  0.95726394  0.62079702     0.36300
C802        C  0.61618195  0.96800086  0.64810040    -0.25700
C803        C  0.61433716  0.95263907  0.68271918    -0.15000
C804        C  0.58411767  0.93154876  0.69281026     0.37400
N805        N  0.58065541  0.91823851  0.72971624    -0.89200
H806        H  0.53909150  0.90180056  0.67422994     0.18500
H807        H  0.63767544  0.98719425  0.64169013     0.18500
N808        N  0.59826063  0.97133646  0.58472220    -0.88200
H809        H  0.55742132  0.90180395  0.73257519     0.35900
H810        H  0.57685640  0.94093916  0.74672869     0.41000
H811        H  0.62515753  0.96616732  0.57697945     0.40600
H812        H  0.59430114  0.99959808  0.58587160     0.35500
C813        C  0.40078633  0.15862960  0.65821881    -0.26300
C814        C  0.43289236  0.17661089  0.65027792    -0.14300
C815        C  0.45560365  0.16257091  0.62200434     0.36300
C816        C  0.44997444  0.12702695  0.60814272    -0.25700
C817        C  0.41827596  0.10754635  0.61673716    -0.15000
C818        C  0.39225861  0.12555700  0.64079238     0.37400
N819        N  0.35726873  0.11002716  0.64898594    -0.89200
H820        H  0.38286781  0.16928531  0.67927873     0.18500
H821        H  0.46918521  0.11587104  0.58866885     0.18500
N822        N  0.48486467  0.18468006  0.60791422    -0.88200
H823        H  0.35502168  0.10711079  0.67735753     0.35900
H824        H  0.33757864  0.12920344  0.64152580     0.41000
H825        H  0.47343337  0.20846783  0.59696297     0.40600
H826        H  0.49749563  0.17132462  0.58603808     0.35500
C827        C  0.57100553  0.18722586  0.58681819    -0.26300
C828        C  0.56696446  0.17625376  0.62341857    -0.14300
C829        C  0.56198914  0.13871038  0.63114671     0.36300
C830        C  0.56798694  0.11307650  0.60348127    -0.25700
C831        C  0.58134433  0.12434866  0.56872572    -0.15000
C832        C  0.57401181  0.16106290  0.55904800     0.37400
N833        N  0.56060814  0.16985499  0.52340096    -0.89200
H834        H  0.56841649  0.21589285  0.57948231     0.18500
H835        H  0.56798635  0.08438125  0.61116466     0.18500
N836        N  0.55148037  0.12640134  0.66692192    -0.88200
H837        H  0.55437121  0.19773752  0.52133073     0.35900
H838        H  0.53627586  0.15536581  0.51966387     0.41000
H839        H  0.57152708  0.10857223  0.67650486     0.40600
H840        H  0.52715420  0.11159990  0.66454310     0.35500
C841        C  0.55545911  0.85099325  0.35904028    -0.26300
C842        C  0.56365690  0.85633456  0.32165449    -0.14300
C843        C  0.55829047  0.89217771  0.30751092     0.36300
C844        C  0.55185743  0.92147556  0.33203139    -0.25700
C845        C  0.55661205  0.91643013  0.37045628    -0.15000
C846        C  0.54756875  0.88066921  0.38216006     0.37400
N847        N  0.52817127  0.87469767  0.41581811    -0.89200
H848        H  0.55506179  0.82368456  0.37064847     0.18500
H849        H  0.55147853  0.94900764  0.32086058     0.18500
N850        N  0.56129482  0.90022154  0.26928191    -0.88200
H851        H  0.50482919  0.89067324  0.41577184     0.35900
H852        H  0.52009695  0.84726270  0.41825015     0.41000
H853        H  0.54229347  0.88418776  0.25524764     0.40600
H854        H  0.58748628  0.89337578  0.26044162     0.35500
C855        C  0.44473367  0.83194270  0.39385602    -0.26300
C856        C  0.45169767  0.84148073  0.35730825    -0.14300
C857        C  0.45538764  0.87876780  0.34827842     0.36300
C858        C  0.44960810  0.90507930  0.37566172    -0.25700
C859        C  0.43003114  0.89576153  0.40742797    -0.15000
C860        C  0.43444456  0.85878680  0.41925302     0.37400
N861        N  0.42885025  0.84860773  0.45674198    -0.89200
H862        H  0.44717735  0.80366159  0.40266071     0.18500
H863        H  0.45979441  0.93260709  0.37195830     0.18500
N864        N  0.46452092  0.88975023  0.31159712    -0.88200
H865        H  0.40914620  0.82783005  0.45769341     0.35900
H866        H  0.45319923  0.83772016  0.46660034     0.41000
H867        H  0.48943614  0.87820670  0.30456946     0.40600
H868        H  0.46754965  0.91824020  0.31003602     0.35500
C869        C  0.03343313  0.39920504  0.83898707    -0.26300
C870        C  0.06261635  0.37948782  0.82298406    -0.14300
C871        C  0.09803963  0.39262054  0.82690398     0.36300
C872        C  0.10415661  0.42180765  0.85026644    -0.25700
C873        C  0.07570858  0.43908404  0.87074447    -0.15000
C874        C  0.03971562  0.42922336  0.86242606     0.37400
N875        N  0.00981974  0.44916069  0.87743906    -0.89200
H876        H  0.00568527  0.38976622  0.83507100     0.18500
H877        H  0.13222693  0.43008195  0.85420622     0.18500
N878        N  0.12864153  0.37518754  0.80995195    -0.88200
H879        H  0.99276374  0.43070008  0.89122791     0.35900
H880        H  0.99552948  0.46068297  0.85567827     0.41000
H881        H  0.12474981  0.37543578  0.78163669     0.40600
H882        H  0.12984168  0.34798145  0.81889005     0.35500
C883        C  0.95567165  0.33794620  0.90034607    -0.26300
C884        C  0.93279054  0.32501522  0.87241820    -0.14300
C885        C  0.89767267  0.33953154  0.86985943     0.36300
C886        C  0.88755740  0.36815091  0.89312482    -0.25700
C887        C  0.91226064  0.38569054  0.91785540    -0.15000
C888        C  0.94538528  0.36646481  0.92400171     0.37400
N889        N  0.96689727  0.37168775  0.95600937    -0.89200
H890        H  0.98201053  0.32533388  0.90449359     0.18500
H891        H  0.86018683  0.37854655  0.89009820     0.18500
N892        N  0.87156679  0.32584988  0.84421287    -0.88200
H893        H  0.99352224  0.37779435  0.94772992     0.35900
H894        H  0.96744632  0.34703290  0.97063615     0.41000
H895        H  0.86850748  0.29762855  0.84837093     0.40600
H896        H  0.88141263  0.33039088  0.81773568     0.35500
C897        C  0.86323153  0.45048232  0.84286126    -0.26300
C898        C  0.83071114  0.46764062  0.85281778    -0.14300
C899        C  0.82815564  0.48169710  0.88914441     0.36300
C900        C  0.85441693  0.47227385  0.91518430    -0.25700
C901        C  0.88157228  0.44665495  0.90725236    -0.15000
C902        C  0.88986193  0.44264273  0.86923246     0.37400
N903        N  0.92520113  0.43128854  0.85719426    -0.89200
H904        H  0.86891792  0.44487873  0.81428783     0.18500
H905        H  0.85203192  0.48325437  0.94242142     0.18500
N906        N  0.79893613  0.50482878  0.90099297    -0.88200
H907        H  0.93564330  0.45227702  0.84068383     0.35900
H908        H  0.92225030  0.40828068  0.84041651     0.41000
H909        H  0.77414016  0.49243393  0.89423979     0.40600
H910        H  0.80120305  0.53038758  0.88824778     0.35500
C911        C  0.88476202  0.56614292  0.85061251    -0.26300
C912        C  0.86644305  0.59494554  0.83298225    -0.14300
C913        C  0.87687076  0.63105633  0.83939773     0.36300
C914        C  0.90367804  0.63792700  0.86550080    -0.25700
C915        C  0.92009675  0.60960692  0.88669297    -0.15000
C916        C  0.91171545  0.57292177  0.87700072     0.37400
N917        N  0.93036343  0.54249202  0.89285847    -0.89200
H918        H  0.87793122  0.53799325  0.84389225     0.18500
H919        H  0.90963735  0.66622029  0.87170480     0.18500
N920        N  0.85968669  0.66061145  0.82006768    -0.88200
H921        H  0.91103879  0.52550492  0.90543841     0.35900
H922        H  0.94266515  0.52758884  0.87177934     0.41000
H923        H  0.86641801  0.65796610  0.79237465     0.40600
H924        H  0.87020805  0.68588665  0.82855733     0.35500
C925        C  0.11594829  0.32204309  0.04979416    -0.26300
C926        C  0.14859716  0.33790820  0.03749823    -0.14300
C927        C  0.14760569  0.37584477  0.02786063     0.36300
C928        C  0.11635014  0.39710059  0.03603678    -0.25700
C929        C  0.08902232  0.38299558  0.05925704    -0.15000
C930        C  0.08575149  0.34393323  0.05916128     0.37400
N931        N  0.05194865  0.32641403  0.06849946    -0.89200
H932        H  0.11359118  0.29244919  0.05154985     0.18500
H933        H  0.11723166  0.42633286  0.03066005     0.18500
N934        N  0.17810143  0.39414024  0.01095504    -0.88200
H935        H  0.05660680  0.30812785  0.09002475     0.35900
H936        H  0.04354084  0.31100170  0.04593940     0.41000
H937        H  0.20039366  0.37672941  0.00837195     0.40600
H938        H  0.18648481  0.41514136  0.02849864     0.35500
C939        C  0.15246390  0.44941834  0.92584526    -0.26300
C940        C  0.11483133  0.44215194  0.92348844    -0.14300
C941        C  0.10420043  0.40505475  0.93195987     0.36300
C942        C  0.12994042  0.37687988  0.93079182    -0.25700
C943        C  0.16654214  0.38451368  0.92398959    -0.15000
C944        C  0.17825202  0.42139646  0.92369193     0.37400
N945        N  0.21637448  0.43045510  0.92104180    -0.89200
H946        H  0.16302986  0.47642349  0.92885433     0.18500
H947        H  0.12107375  0.34879498  0.93507969     0.18500
N948        N  0.06684175  0.39492781  0.93726537    -0.88200
H949        H  0.22048706  0.45884063  0.92159403     0.35900
H950        H  0.22561557  0.42149031  0.89549129     0.41000
H951        H  0.06441480  0.38258584  0.96300427     0.40600
H952        H  0.05976078  0.37536861  0.91759201     0.35500
C953        C  0.96265932  0.09526419  0.86514570    -0.26300
C954        C  0.92540329  0.09155344  0.87076995    -0.14300
C955        C  0.90182125  0.11565770  0.85017924     0.36300
C956        C  0.91616705  0.14428906  0.82895587    -0.25700
C957        C  0.95340057  0.14961505  0.82631248    -0.15000
C958        C  0.97665680  0.12349044  0.84327033     0.37400
N959        N  0.01515971  0.12619255  0.84008244    -0.89200
H960        H  0.98147743  0.07644864  0.87785198     0.18500
H961        H  0.89782594  0.16310546  0.81544909     0.18500
N962        N  0.86296203  0.11172772  0.85098371    -0.88200
H963        H  0.02511018  0.10139819  0.82982573     0.35900
H964        H  0.02440854  0.12951045  0.86678153     0.41000
H965        H  0.85408048  0.10794943  0.82419374     0.40600
H966        H  0.85202265  0.13696419  0.85859337     0.35500
C967        C  0.89553386  0.03770332  0.82965399    -0.26300
C968        C  0.89045937  0.03356663  0.86828370    -0.14300
C969        C  0.86015450  0.01174794  0.87730829     0.36300
C970        C  0.82908049  0.01375293  0.85472925    -0.25700
C971        C  0.83026049  0.03219291  0.82043752    -0.15000
C972        C  0.86523605  0.03993793  0.80618903     0.37400
N973        N  0.87069993  0.05274574  0.76953247    -0.89200
H974        H  0.92163187  0.04639448  0.81872588     0.18500
H975        H  0.80403227  0.00118412  0.86430785     0.18500
N976        N  0.86110828  0.98784441  0.90856240    -0.88200
H977        H  0.85697752  0.07755084  0.76627996     0.35900
H978        H  0.85926575  0.03365473  0.75170365     0.41000
H979        H  0.88103924  0.96808808  0.90355424     0.40600
H980        H  0.83639414  0.97372618  0.91118658     0.35500
C981        C  0.07809493  0.19047488  0.91248699    -0.26300
C982        C  0.08547046  0.18884441  0.87472359    -0.14300
C983        C  0.09203304  0.15425813  0.85903136     0.36300
C984        C  0.09072346  0.12343285  0.88104397    -0.25700
C985        C  0.09215146  0.12537859  0.91980699    -0.15000
C986        C  0.07890053  0.15906560  0.93473811     0.37400
N987        N  0.05953810  0.16165918  0.96887156    -0.89200
H988        H  0.06834063  0.21582945  0.92440141     0.18500
H989        H  0.09156267  0.09742573  0.86689106     0.18500
N990        N  0.09788516  0.14856975  0.82059908    -0.88200
H991        H  0.07191417  0.18151457  0.98530045     0.35900
H992        H  0.05818711  0.13696361  0.98292914     0.41000
H993        H  0.12032177  0.16417320  0.81210163     0.40600
H994        H  0.07469919  0.15600850  0.80596521     0.35500
C995        C  0.20169353  0.13209155  0.96019617    -0.26300
C996        C  0.18700085  0.16756683  0.96353685    -0.14300
C997        C  0.15447307  0.17015799  0.98495117     0.36300
C998        C  0.13315030  0.13863826  0.99059581    -0.25700
C999        C  0.14044110  0.10726589  0.97021683    -0.15000
C1000       C  0.17869982  0.10124415  0.96645230     0.37400
N1001       N  0.19285950  0.06475625  0.96405067    -0.89200
H1002       H  0.22931393  0.12820807  0.95052319     0.18500
H1003       H  0.11006148  0.13936382  0.00874987     0.18500
N1004       N  0.14316840  0.20336557  0.00250465    -0.88200
H1005       H  0.21184634  0.06166455  0.98503157     0.35900
H1006       H  0.20698332  0.06201065  0.93932296     0.41000
H1007       H  0.13410853  0.22203147  0.98292237     0.40600
H1008       H  0.16520704  0.21442444  0.01683646     0.35500
C1009       C  0.37729441  0.01162523  0.61717144    -0.26300
C1010       C  0.39818632  0.04228663  0.62637293    -0.14300
C1011       C  0.40343004  0.04784315  0.66468252     0.36300
C1012       C  0.37491773  0.03831198  0.68883286    -0.25700
C1013       C  0.34481700  0.01927004  0.67514868    -0.15000
C1014       C  0.34979991  0.00012941  0.64141726     0.37400
N1015       N  0.32566712  0.97122455  0.63038664    -0.89200
H1016       H  0.37710989  0.00157948  0.58928330     0.18500
H1017       H  0.37517604  0.04807065  0.71681064     0.18500
N1018       N  0.43574654  0.06503488  0.67847568    -0.88200
H1019       H  0.34125864  0.94781496  0.62543675     0.35900
H1020       H  0.31336975  0.97888250  0.60579929     0.41000
H1021       H  0.42822272  0.08780757  0.69408305     0.40600
H1022       H  0.44824139  0.04647847  0.69619763     0.35500
C1023       C  0.14821555  0.03223748  0.85888593    -0.26300
C1024       C  0.17521301  0.05533799  0.84330726    -0.14300
C1025       C  0.18264104  0.08836736  0.86096001     0.36300
C1026       C  0.16235511  0.09781612  0.89195740    -0.25700
C1027       C  0.13599214  0.07418621  0.90966583    -0.15000
C1028       C  0.12922236  0.04054341  0.89142188     0.37400
N1029       N  0.10128136  0.01557760  0.90247597    -0.89200
H1030       H  0.14057019  0.00766006  0.84467119     0.18500
H1031       H  0.16523350  0.12589227  0.90091579     0.18500
N1032       N  0.20857354  0.11420049  0.84676104    -0.88200
H1033       H  0.07620115  0.02892601  0.90291452     0.35900
H1034       H  0.10791273  0.00483953  0.92799779     0.41000
H1035       H  0.20145259  0.12064870  0.81985464     0.40600
H1036       H  0.23422600  0.10192182  0.84666653     0.35500
C1037       C  0.13283557  0.93752146  0.89398350    -0.26300
C1038       C  0.09500973  0.93178035  0.88985424    -0.14300
C1039       C  0.08105597  0.94219416  0.85481618     0.36300
C1040       C  0.10451683  0.94318550  0.82442605    -0.25700
C1041       C  0.14220716  0.93810723  0.82838518    -0.15000
C1042       C  0.15666932  0.93860651  0.86404877     0.37400
N1043       N  0.19525587  0.94175248  0.87003565    -0.89200
H1044       H  0.14445548  0.94385278  0.91993174     0.18500
H1045       H  0.09299020  0.94780095  0.79758634     0.18500
N1046       N  0.04327230  0.95003813  0.84875466    -0.88200
H1047       H  0.20131442  0.94069665  0.89792702     0.35900
H1048       H  0.20342967  0.96773473  0.86097459     0.41000
H1049       H  0.02860004  0.95007140  0.87316245     0.40600
H1050       H  0.03247979  0.92963520  0.83185661     0.35500
C1051       C  0.80627868  0.37907448  0.94495416    -0.26300
C1052       C  0.81924965  0.34317683  0.94898039    -0.14300
C1053       C  0.85165261  0.33895559  0.97005312     0.36300
C1054       C  0.87309082  0.36985241  0.97938066    -0.25700
C1055       C  0.86557845  0.40413790  0.96334718    -0.15000
C1056       C  0.82766169  0.40921767  0.95638177     0.37400
N1057       N  0.80829132  0.43851666  0.97385216    -0.89200
H1058       H  0.77830032  0.38347444  0.93686457     0.18500
H1059       H  0.89960995  0.36521491  0.99131788     0.18500
N1060       N  0.86357552  0.30346254  0.98148325    -0.88200
H1061       H  0.79460953  0.45381263  0.95413952     0.35900
H1062       H  0.82596969  0.45538165  0.98867532     0.41000
H1063       H  0.86547549  0.30361752  0.01001197     0.40600
H1064       H  0.88963907  0.29921007  0.97071654     0.35500
C1065       C  0.84543498  0.14340019  0.02810792    -0.26300
C1066       C  0.85475464  0.18044637  0.02305550    -0.14300
C1067       C  0.89199125  0.18917173  0.01810327     0.36300
C1068       C  0.91838042  0.16330587  0.02769661    -0.25700
C1069       C  0.90764101  0.13105634  0.04617693    -0.15000
C1070       C  0.87199757  0.11814419  0.03917431     0.37400
N1071       N  0.86188974  0.08104352  0.04701347    -0.89200
H1072       H  0.81734947  0.13452855  0.02553221     0.18500
H1073       H  0.94676404  0.17152096  0.02723540     0.18500
N1074       N  0.90373137  0.22456992  0.00581005    -0.88200
H1075       H  0.84032919  0.08173414  0.06571242     0.35900
H1076       H  0.85203428  0.06940241  0.02285301     0.41000
H1077       H  0.89318327  0.24415448  0.02375149     0.40600
H1078       H  0.89310469  0.22912533  0.97973727     0.35500
C1079       C  0.85864943  0.14530994  0.92948895    -0.26300
C1080       C  0.82341450  0.13180211  0.92434360    -0.14300
C1081       C  0.81761295  0.09394197  0.92896609     0.36300
C1082       C  0.84766665  0.07039366  0.93007574    -0.25700
C1083       C  0.88315989  0.08325089  0.92247607    -0.15000
C1084       C  0.88857643  0.12181765  0.93014359     0.37400
N1085       N  0.92353140  0.13908509  0.93517439    -0.89200
H1086       H  0.86342613  0.17459264  0.93121306     0.18500
H1087       H  0.84238406  0.04218531  0.93595392     0.18500
N1088       N  0.78153074  0.07908907  0.93169264    -0.88200
H1089       H  0.92782155  0.15776060  0.91368226     0.35900
H1090       H  0.94483555  0.12103484  0.93460497     0.41000
H1091       H  0.77933614  0.06507778  0.95658810     0.40600
H1092       H  0.77807848  0.06006361  0.91059136     0.35500
C1093       C  0.02016667  0.85918805  0.12950028    -0.26300
C1094       C  0.03444567  0.85513285  0.16537668    -0.14300
C1095       C  0.04322357  0.88789344  0.18424589     0.36300
C1096       C  0.04609477  0.92070900  0.16438296    -0.25700
C1097       C  0.04474633  0.92005535  0.12554274    -0.15000
C1098       C  0.02194662  0.89312067  0.11096838     0.37400
N1099       N  0.00368811  0.89876831  0.07656310    -0.89200
H1100       H  0.00747991  0.83620523  0.11577475     0.18500
H1101       H  0.05621020  0.94474600  0.17854266     0.18500
N1102       N  0.05121479  0.88871151  0.22253294    -0.88200
H1103       H  0.99446459  0.87365418  0.06640577     0.35900
H1104       H  0.02130685  0.90941608  0.05676313     0.41000
H1105       H  0.07368809  0.87198588  0.22749847     0.40600
H1106       H  0.02862102  0.87868812  0.23693010     0.35500
C1107       C  0.93346438  0.63503225  0.18643421    -0.26300
C1108       C  0.91653765  0.66951812  0.18112322    -0.14300
C1109       C  0.90815164  0.67907630  0.14508985     0.36300
C1110       C  0.91399387  0.65401777  0.11637753    -0.25700
C1111       C  0.92592688  0.61690299  0.12166059    -0.50200
C1112       C  0.94005900  0.61011261  0.15742289     0.37400
N1113       N  0.95982946  0.57740200  0.16576195    -0.89200
H1114       H  0.94279135  0.62746034  0.21346746     0.18500
H1115       H  0.90363788  0.66414543  0.09127465     0.18500
N1116       N  0.89160728  0.71367495  0.13718343    -0.88200
H1117       H  0.98244880  0.57614105  0.14846995     0.35900
H1118       H  0.94371281  0.55439850  0.16109609     0.41000
H1119       H  0.86596924  0.70859776  0.12588292     0.40600
H1120       H  0.90739557  0.72682808  0.11720636     0.35500
C1121       C  0.92845745  0.82381604  0.09805710    -0.26300
C1122       C  0.93068838  0.83654310  0.13409454    -0.14300
C1123       C  0.93345206  0.87478964  0.13955304     0.36300
C1124       C  0.93035382  0.89857177  0.10951040    -0.25700
C1125       C  0.91972032  0.88592503  0.07408054    -0.15000
C1126       C  0.92404495  0.84749792  0.06828587     0.37400
N1127       N  0.92869898  0.83186750  0.03292280    -0.89200
H1128       H  0.93035401  0.79472038  0.09239201     0.18500
H1129       H  0.93109937  0.92771133  0.11521024     0.18500
N1130       N  0.93853157  0.89059489  0.17503555    -0.88200
H1131       H  0.91085029  0.80957644  0.03055142     0.35900
H1132       H  0.95516634  0.82155084  0.03108664     0.41000
H1133       H  0.96237787  0.88014034  0.18639666     0.40600
H1134       H  0.91639359  0.88330769  0.19160088     0.35500
C1135       C  0.01051956  0.64973255  0.10621235    -0.26300
C1136       C  0.01873297  0.64838230  0.14368644    -0.14300
C1137       C  0.04234907  0.62131041  0.15669408     0.36300
C1138       C  0.06304255  0.60196586  0.13159949    -0.25700
C1139       C  0.06317081  0.61215301  0.09420359    -0.15000
C1140       C  0.03197216  0.63051231  0.08120955     0.37400
N1141       N  0.02478514  0.63314746  0.04279174    -0.89200
H1142       H  0.98965335  0.66798437  0.09609236     0.18500
H1143       H  0.08112002  0.58118402  0.14219260     0.18500
N1144       N  0.04693480  0.61465373  0.19504903    -0.88200
H1145       H  0.00040433  0.61938297  0.03772802     0.35900
H1146       H  0.02144912  0.66068811  0.03563931     0.41000
H1147       H  0.07431047  0.61906491  0.20153135     0.40600
H1148       H  0.04081500  0.58708375  0.20016684     0.35500
C1149       C  0.66353110  0.10985644  0.03579392    -0.26300
C1150       C  0.67954687  0.14071407  0.05275685    -0.14300
C1151       C  0.66765259  0.14990120  0.08816773     0.36300
C1152       C  0.63921139  0.13018977  0.10419257    -0.25700
C1153       C  0.61936627  0.10211578  0.08572229    -0.15000
C1154       C  0.63404044  0.09060980  0.05154407     0.37400
N1155       N  0.62056313  0.05878559  0.03295454    -0.89200
H1156       H  0.67316157  0.10103194  0.00921971     0.18500
H1157       H  0.63144146  0.13895356  0.13123767     0.18500
N1158       N  0.68285790  0.17976864  0.10855491    -0.88200
H1159       H  0.64225020  0.04077367  0.02883920     0.35900
H1160       H  0.61113764  0.06658461  0.00720924     0.41000
H1161       H  0.67726312  0.20437927  0.09507724     0.40600
H1162       H  0.71098485  0.17608968  0.11060338     0.35500
C1163       C  0.59323237  0.05694976  0.86840287    -0.26300
C1164       C  0.60277338  0.08126305  0.89715070    -0.14300
C1165       C  0.64103052  0.08722633  0.90088523     0.36300
C1166       C  0.66455404  0.08153637  0.87024029    -0.25700
C1167       C  0.65041666  0.06980450  0.83635782    -0.15000
C1168       C  0.61515514  0.05391036  0.83706752     0.37400
N1169       N  0.60020782  0.03639824  0.80536411    -0.89200
H1170       H  0.56533755  0.04789419  0.86539207     0.18500
H1171       H  0.69292507  0.08949169  0.87215446     0.18500
N1172       N  0.65627666  0.09988395  0.93438707    -0.88200
H1173       H  0.57681195  0.05065294  0.79765935     0.35900
H1174       H  0.59235837  0.00977951  0.81259883     0.41000
H1175       H  0.67064678  0.12407412  0.92899636     0.40600
H1176       H  0.67508713  0.08036857  0.94314872     0.35500
C1177       C  0.60264685  0.14555863  0.96216973    -0.26300
C1178       C  0.57968153  0.14427423  0.93184418    -0.14300
C1179       C  0.56742953  0.18017609  0.92042314     0.36300
C1180       C  0.59245088  0.20964363  0.92108239    -0.25700
C1181       C  0.62381594  0.20557279  0.94178692    -0.15000
C1182       C  0.62222886  0.17817282  0.96902445     0.37400
N1183       N  0.63590477  0.18545168  0.00468050    -0.89200
H1184       H  0.60581615  0.12195885  0.97961111     0.18500
H1185       H  0.58851048  0.23358251  0.90402664     0.18500
N1186       N  0.53138251  0.18601972  0.90688127    -0.88200
H1187       H  0.61377720  0.18537454  0.02272793     0.35900
H1188       H  0.64706098  0.21187647  0.00565278     0.41000
H1189       H  0.53336789  0.19881779  0.88135463     0.40600
H1190       H  0.51856837  0.20455042  0.92446637     0.35500
C1191       C  0.52481483  0.12290081  0.85724953    -0.26300
C1192       C  0.56020363  0.12400067  0.87171354    -0.14300
C1193       C  0.58741579  0.14497180  0.85177457     0.36300
C1194       C  0.57847617  0.16474852  0.82116583    -0.25700
C1195       C  0.54304857  0.16759648  0.81000632    -0.15000
C1196       C  0.51578138  0.14514499  0.82689336     0.37400
N1197       N  0.47860626  0.14591553  0.81533518    -0.89200
H1198       H  0.50370593  0.10733320  0.87109496     0.18500
H1199       H  0.59973410  0.18047778  0.80753476     0.18500
N1200       N  0.62382824  0.15041694  0.86467290    -0.88200
H1201       H  0.47730710  0.13684720  0.78826331     0.35900
H1202       H  0.46939022  0.17297121  0.81662122     0.41000
H1203       H  0.62817285  0.17841364  0.86865378     0.40600
H1204       H  0.64162211  0.14333091  0.84348409     0.35500
C1205       C  0.33274163  0.12874128  0.06071564    -0.26300
C1206       C  0.36381561  0.11736056  0.03971981    -0.14300
C1207       C  0.36585665  0.13197073  0.00365349     0.36300
C1208       C  0.34255964  0.16077318  0.99329137    -0.25700
C1209       C  0.31703671  0.17647922  0.01786916    -0.15000
C1210       C  0.31052741  0.15821829  0.05075037     0.37400
N1211       N  0.28232055  0.17020322  0.07507078    -0.89200
H1212       H  0.32619232  0.11725985  0.08701165     0.18500
H1213       H  0.34652129  0.17263521  0.96637768     0.18500
N1214       N  0.39317434  0.12099550  0.97796588    -0.88200
H1215       H  0.29423863  0.17706849  0.10009309     0.35900
H1216       H  0.26451888  0.14817855  0.07954179     0.41000
H1217       H  0.39151794  0.09260671  0.97438460     0.40600
H1218       H  0.41872358  0.12832494  0.98802230     0.35500
C1219       C  0.49191579  0.87216821  0.16782481    -0.26300
C1220       C  0.48146977  0.83484826  0.16716662    -0.14300
C1221       C  0.47825423  0.81828151  0.13255423     0.36300
C1222       C  0.47890547  0.84037767  0.10104362    -0.25700
C1223       C  0.47730155  0.87881671  0.10297579    -0.15000
C1224       C  0.49189289  0.89368182  0.13580865     0.37400
N1225       N  0.50201836  0.93159808  0.13781868    -0.89200
H1226       H  0.49992438  0.88486011  0.19338009     0.18500
H1227       H  0.48523490  0.82764711  0.07567410     0.18500
N1228       N  0.47709246  0.77925851  0.12839226    -0.88200
H1229       H  0.52932346  0.93295504  0.14566899     0.35900
H1230       H  0.48657765  0.94400132  0.15842336     0.41000
H1231       H  0.45421529  0.76928741  0.14235469     0.40600
H1232       H  0.50033960  0.76821265  0.14046126     0.35500
C1233       C  0.60647856  0.94954303  0.88759637    -0.26300
C1234       C  0.62214737  0.95066411  0.92272922    -0.14300
C1235       C  0.65262507  0.97383403  0.92606065     0.36300
C1236       C  0.67612614  0.97708540  0.89558597    -0.25700
C1237       C  0.66573299  0.96154597  0.86190349    -0.15000
C1238       C  0.62919296  0.95047311  0.85729424     0.37400
N1239       N  0.61582188  0.93908002  0.82206633    -0.89200
H1240       H  0.57860182  0.94051312  0.88393836     0.18500
H1241       H  0.70115629  0.99278831  0.89755948     0.18500
N1242       N  0.65897334  0.99374865  0.95935309    -0.88200
H1243       H  0.58836356  0.93152354  0.82363688     0.35900
H1244       H  0.63013211  0.91556095  0.81442845     0.41000
H1245       H  0.63718330  0.01176013  0.96291367     0.40600
H1246       H  0.68242473  0.00990914  0.95673817     0.35500
C1247       C  0.34560321  0.93489835  0.88459643    -0.26300
C1248       C  0.37585140  0.95964321  0.88775748    -0.14300
C1249       C  0.37920576  0.98655788  0.86011083     0.36300
C1250       C  0.35559909  0.98544260  0.82947834    -0.25700
C1251       C  0.32828819  0.95813677  0.82574897    -0.15000
C1252       C  0.32297002  0.93340636  0.85439162     0.37400
N1253       N  0.29430946  0.90656344  0.85404730    -0.89200
H1254       H  0.34087404  0.91330339  0.90420718     0.18500
H1255       H  0.35817825  0.00634224  0.80851387     0.18500
N1256       N  0.40633150  0.01482226  0.86314118    -0.88200
H1257       H  0.29802862  0.88945550  0.83142846     0.35900
H1258       H  0.26936019  0.92000333  0.85159873     0.41000
H1259       H  0.39968560  0.03072773  0.88596907     0.40600
H1260       H  0.40546263  0.03228342  0.84045769     0.35500
C1261       C  0.14269396  0.62178136  0.02488574    -0.26300
C1262       C  0.11140982  0.63157109  0.04548695    -0.14300
C1263       C  0.11120057  0.66840252  0.05896664     0.36300
C1264       C  0.14382807  0.68777354  0.06273954    -0.25700
C1265       C  0.17662815  0.67486635  0.04846202    -0.15000
C1266       C  0.17529019  0.64266092  0.02662611     0.37400
N1267       N  0.20624246  0.63042988  0.00585435    -0.89200
H1268       H  0.14366224  0.59502884  0.01204237     0.18500
H1269       H  0.14288022  0.71491739  0.07490799     0.18500
N1270       N  0.07878181  0.68638315  0.07080782    -0.88200
H1271       H  0.21346116  0.60458132  0.01579070     0.35900
H1272       H  0.22875997  0.64746841  0.01006102     0.41000
H1273       H  0.07569395  0.71034133  0.05540212     0.40600
H1274       H  0.08180137  0.69386224  0.09826229     0.35500
C1275       C  0.38442273  0.81914704  0.05729422    -0.26300
C1276       C  0.35153863  0.83454550  0.06986955    -0.14300
C1277       C  0.35018428  0.87360251  0.07063101     0.36300
C1278       C  0.38086840  0.89459687  0.06029617    -0.25700
C1279       C  0.41633832  0.87904880  0.05976573    -0.15000
C1280       C  0.41622565  0.84079705  0.05113512     0.37400
N1281       N  0.44443439  0.82549806  0.02869750    -0.89200
H1282       H  0.38530558  0.79017189  0.05088093     0.18500
H1283       H  0.37824043  0.92414633  0.06191949     0.18500
N1284       N  0.31948364  0.89333710  0.08468968    -0.88200
H1285       H  0.43377971  0.82067035  0.00274987     0.35900
H1286       H  0.45037046  0.79929469  0.03867110     0.41000
H1287       H  0.31392626  0.88415041  0.11123527     0.40600
H1288       H  0.29675386  0.88910956  0.06830535     0.35500
C1289       C  0.12900644  0.89299880  0.95833955    -0.26300
C1290       C  0.09707506  0.88001152  0.94146157    -0.14300
C1291       C  0.09402943  0.84098409  0.94192902     0.36300
C1292       C  0.12577989  0.81919419  0.94274711    -0.25700
C1293       C  0.16074162  0.83518975  0.94538349    -0.15000
C1294       C  0.16191566  0.87256446  0.95613462     0.37400
N1295       N  0.19594237  0.88943975  0.96583310    -0.89200
H1296       H  0.12942555  0.92050377  0.96935777     0.18500
H1297       H  0.12291810  0.78973503  0.94013467     0.18500
N1298       N  0.05906462  0.82341730  0.94069265    -0.88200
H1299       H  0.19184506  0.91664451  0.97377155     0.35900
H1300       H  0.21201012  0.89062719  0.94220959     0.41000
H1301       H  0.05621583  0.80735230  0.96423599     0.40600
H1302       H  0.05859397  0.80571176  0.91820448     0.35500
C1303       C  0.36195232  0.94489475  0.96301911    -0.26300
C1304       C  0.39266221  0.92850770  0.94636908    -0.14300
C1305       C  0.40361593  0.89450761  0.96031553     0.36300
C1306       C  0.37665626  0.87130522  0.97455450    -0.25700
C1307       C  0.34133900  0.88451718  0.98026761    -0.15000
C1308       C  0.33527857  0.92273712  0.97882426     0.37400
N1309       N  0.30132527  0.93918008  0.98882635    -0.89200
H1310       H  0.35530352  0.97326266  0.95736278     0.18500
H1311       H  0.38239063  0.84258385  0.97874680     0.18500
N1312       N  0.44001491  0.88189221  0.95518003    -0.88200
H1313       H  0.29645608  0.93417995  0.01656878     0.35900
H1314       H  0.28052268  0.92738449  0.97328634     0.41000
H1315       H  0.43867944  0.85558336  0.94396928     0.40600
H1316       H  0.45203678  0.87983072  0.98091968     0.35500
C1317       C  0.15605734  0.90463386  0.04783459    -0.26300
C1318       C  0.14872162  0.86706673  0.04728562    -0.14300
C1319       C  0.11306222  0.85462723  0.05222455     0.36300
C1320       C  0.08681472  0.87910446  0.06420447    -0.25700
C1321       C  0.09555248  0.91609197  0.07282539    -0.15000
C1322       C  0.12971729  0.92937112  0.05913639     0.37400
N1323       N  0.13948982  0.96749017  0.06067249    -0.89200
H1324       H  0.18295239  0.91496786  0.04100673     0.18500
H1325       H  0.06138868  0.86616505  0.06893026     0.18500
N1326       N  0.10368607  0.81665396  0.04786481    -0.88200
H1327       H  0.14606217  0.97609633  0.03413728     0.35900
H1328       H  0.16286075  0.97028886  0.07670285     0.41000
H1329       H  0.08297246  0.81477739  0.02842341     0.40600
H1330       H  0.09347593  0.80685267  0.07279468     0.35500
C1331       C  0.15079720  0.92123576  0.17311015    -0.26300
C1332       C  0.16264503  0.95563969  0.18306189    -0.14300
C1333       C  0.14608329  0.98713569  0.16689103     0.36300
C1334       C  0.11767269  0.98273513  0.14103027    -0.25700
C1335       C  0.10628184  0.94761809  0.13007457    -0.15000
C1336       C  0.12415531  0.91660478  0.14675022     0.37400
N1337       N  0.11557785  0.87952569  0.13686597    -0.89200
H1338       H  0.16400072  0.89718109  0.18435431     0.18500
H1339       H  0.10497548  0.00669175  0.12919778     0.18500
N1340       N  0.15745551  0.02380455  0.17588660    -0.88200
H1341       H  0.13919398  0.86759028  0.12624664     0.35900
H1342       H  0.10892229  0.86490559  0.16056970     0.41000
H1343       H  0.17733368  0.02375023  0.19620568     0.40600
H1344       H  0.13499026  0.03727817  0.18715492     0.35500
C1345       C  0.35994953  0.05131003  0.09182346    -0.26300
C1346       C  0.38175207  0.08275529  0.09677542    -0.14300
C1347       C  0.37671577  0.10172292  0.13145216     0.36300
C1348       C  0.35218084  0.08855734  0.15818763    -0.25700
C1349       C  0.32946042  0.05882782  0.15160123    -0.15000
C1350       C  0.33371087  0.03998009  0.11767744     0.37400
N1351       N  0.31043932  0.00975783  0.10830067    -0.89200
H1352       H  0.36004314  0.03739959  0.06573286     0.18500
H1353       H  0.34979416  0.10307518  0.18394729     0.18500
N1354       N  0.39265954  0.13672474  0.13900888    -0.88200
H1355       H  0.32674763  0.98692109  0.10298855     0.35900
H1356       H  0.29662255  0.01639064  0.08424454     0.41000
H1357       H  0.40745030  0.13478687  0.16333021     0.40600
H1358       H  0.37183590  0.15582509  0.14284315     0.35500
C1359       C  0.38961031  0.94972465  0.36151747    -0.26300
C1360       C  0.38002431  0.94814079  0.39862339    -0.14300
C1361       C  0.34228016  0.95546743  0.40474655     0.36300
C1362       C  0.31648979  0.94928277  0.37640353    -0.25700
C1363       C  0.32782518  0.93665214  0.34163112    -0.15000
C1364       C  0.36593113  0.93749114  0.33448806     0.37400
N1365       N  0.38225013  0.92465747  0.30116999    -0.89200
H1366       H  0.41595143  0.95874356  0.35276815     0.18500
H1367       H  0.28777150  0.95256189  0.38228167     0.18500
N1368       N  0.32997860  0.96632763  0.44031298    -0.88200
H1369       H  0.37482279  0.94096659  0.27907628     0.35900
H1370       H  0.37425376  0.89748705  0.29673620     0.41000
H1371       H  0.31038778  0.94739699  0.44921313     0.40600
H1372       H  0.31713396  0.99170817  0.43767348     0.35500
C1373       C  0.38952169  0.96197073  0.14842098    -0.26300
C1374       C  0.36945807  0.93426668  0.16599322    -0.14300
C1375       C  0.37904200  0.89762541  0.16173109     0.36300
C1376       C  0.40646489  0.88902264  0.13692771    -0.25700
C1377       C  0.42418989  0.91624754  0.11514573    -0.15000
C1378       C  0.41696101  0.95356879  0.12323102     0.37400
N1379       N  0.43712151  0.98305081  0.10692613    -0.89200
H1380       H  0.38355846  0.99050089  0.15405847     0.18500
H1381       H  0.41218077  0.86031929  0.13232095     0.18500
N1382       N  0.36086125  0.86937340  0.18245256    -0.88200
H1383       H  0.44924089  0.99833545  0.12781681     0.35900
H1384       H  0.41877290  0.00006258  0.09337260     0.41000
H1385       H  0.36697800  0.87359616  0.21005334     0.40600
H1386       H  0.37113277  0.84355116  0.17565451     0.35500
C1387       C  0.40206694  0.03214108  0.33673161    -0.26300
C1388       C  0.36491514  0.04138126  0.33998964    -0.14300
C1389       C  0.35298656  0.05748054  0.37283425     0.36300
C1390       C  0.37895764  0.07127512  0.39696014    -0.25700
C1391       C  0.41624276  0.07283863  0.38641857    -0.15000
C1392       C  0.42748119  0.04502629  0.36232715     0.37400
N1393       N  0.46459141  0.03263322  0.36180795    -0.89200
H1394       H  0.41136682  0.01537815  0.31412308     0.18500
H1395       H  0.36930972  0.08513797  0.42130511     0.18500
N1396       N  0.31520906  0.06136497  0.38182751    -0.88200
H1397       H  0.46823580  0.01310073  0.34120858     0.35900
H1398       H  0.46923302  0.01906390  0.38654783     0.41000
H1399       H  0.30285607  0.03551508  0.38056168     0.40600
H1400       H  0.30305148  0.07857331  0.36261152     0.35500
C1401       C  0.49403101  0.84953412  0.65827223    -0.26300
C1402       C  0.51677124  0.81818383  0.65893154    -0.14300
C1403       C  0.53395419  0.80863037  0.62577627     0.36300
C1404       C  0.53667313  0.83542930  0.59795111    -0.25700
C1405       C  0.52652871  0.87250348  0.60524733    -0.15000
C1406       C  0.49789718  0.87636279  0.63050159     0.37400
N1407       N  0.47720892  0.90953867  0.63171294    -0.89200
H1408       H  0.47638999  0.85535693  0.68136246     0.18500
H1409       H  0.55310365  0.82898409  0.57415656     0.18500
N1410       N  0.55222789  0.77431491  0.62113550    -0.88200
H1411       H  0.48030681  0.92156231  0.65746018     0.35900
H1412       H  0.44976569  0.90242297  0.62892045     0.41000
H1413       H  0.53320146  0.75319485  0.62447816     0.40600
H1414       H  0.57188701  0.77165449  0.64153162     0.35500
C1415       C  0.40633771  0.88291364  0.87981620    -0.26300
C1416       C  0.42493128  0.91725858  0.88357830    -0.14300
C1417       C  0.44650840  0.92804603  0.85290837     0.36300
C1418       C  0.44921358  0.90525000  0.82190559    -0.25700
C1419       C  0.43068883  0.87142130  0.81951516    -0.15000
C1420       C  0.40900210  0.86053420  0.84898777     0.37400
N1421       N  0.39022590  0.82599634  0.84849118    -0.89200
H1422       H  0.38677333  0.87348094  0.89962121     0.18500
H1423       H  0.46706181  0.91371331  0.79972082     0.18500
N1424       N  0.46529025  0.96247317  0.85217753    -0.88200
H1425       H  0.36238945  0.83102030  0.85165651     0.35900
H1426       H  0.39882864  0.81071058  0.87105846     0.41000
H1427       H  0.45709907  0.97681685  0.82885387     0.40600
H1428       H  0.49312819  0.95720433  0.84940085     0.35500
C1429       C  0.59513529  0.84868701  0.87844335    -0.26300
C1430       C  0.55788603  0.84311680  0.87843979    -0.14300
C1431       C  0.53652497  0.85939105  0.90638094     0.36300
C1432       C  0.55249804  0.88325545  0.93183921    -0.25700
C1433       C  0.58998234  0.89148016  0.93048814    -0.15000
C1434       C  0.61154818  0.87157478  0.90416566     0.37400
N1435       N  0.65005359  0.87674994  0.90090474    -0.89200
H1436       H  0.61186037  0.83558058  0.85777072     0.18500
H1437       H  0.53501238  0.89608889  0.95192093     0.18500
N1438       N  0.49811355  0.85355320  0.90856942    -0.88200
H1439       H  0.65596166  0.88631012  0.87462470     0.35900
H1440       H  0.66200448  0.85085986  0.90228007     0.41000
H1441       H  0.49309948  0.82586179  0.91407393     0.40600
H1442       H  0.48648738  0.86054621  0.88349154     0.35500
C1443       C  0.45029393  0.37610801  0.63480791    -0.26300
C1444       C  0.44213607  0.33891113  0.63056980    -0.14300
C1445       C  0.41947422  0.32733219  0.60223813     0.36300
C1446       C  0.40416005  0.35322124  0.57947278    -0.25700
C1447       C  0.41209156  0.39113532  0.58225310    -0.15000
C1448       C  0.43545202  0.40219683  0.61111200     0.37400
N1449       N  0.44152652  0.44039510  0.61794896    -0.89200
H1450       H  0.46735467  0.38497817  0.65713602     0.18500
H1451       H  0.38259489  0.34279043  0.56338156     0.18500
N1452       N  0.40927665  0.28958308  0.59753503    -0.88200
H1453       H  0.46870707  0.44633650  0.61232349     0.35900
H1454       H  0.43562066  0.44608793  0.64536840     0.41000
H1455       H  0.39793969  0.27986460  0.62199722     0.40600
H1456       H  0.43253474  0.27434579  0.59142942     0.35500
C1457       C  0.42214229  0.64414870  0.37817633    -0.26300
C1458       C  0.43772308  0.60836988  0.38207178    -0.14300
C1459       C  0.46018356  0.59712959  0.35242985     0.36300
C1460       C  0.46811718  0.62150366  0.32324414    -0.25700
C1461       C  0.45255439  0.65679718  0.32101894    -0.15000
C1462       C  0.42923525  0.66774256  0.34897446     0.37400
N1463       N  0.41315454  0.70350710  0.34862701    -0.89200
H1464       H  0.40161452  0.65431538  0.39641409     0.18500
H1465       H  0.48679474  0.61265823  0.30201639     0.18500
N1466       N  0.47397079  0.56059661  0.35060142    -0.88200
H1467       H  0.42107254  0.71725706  0.37242092     0.35900
H1468       H  0.38485112  0.70034447  0.34931669     0.41000
H1469       H  0.50237066  0.56215285  0.34970960     0.40600
H1470       H  0.46529987  0.54902594  0.32595370     0.35500
C1471       C  0.46986225  0.68541512  0.60416347    -0.26300
C1472       C  0.47267781  0.64667091  0.60706363    -0.14300
C1473       C  0.48843111  0.63590848  0.64127913     0.36300
C1474       C  0.48346207  0.65813866  0.67234433    -0.25700
C1475       C  0.46680415  0.69293885  0.67026567    -0.15000
C1476       C  0.46262193  0.70782653  0.63505015     0.37400
N1477       N  0.45185285  0.74534021  0.63050851    -0.89200
H1478       H  0.47386888  0.69871713  0.57824723     0.18500
H1479       H  0.49215860  0.64731418  0.69848942     0.18500
N1480       N  0.50671036  0.60161844  0.64650657    -0.88200
H1481       H  0.45203422  0.75241198  0.60280509     0.35900
H1482       H  0.47145767  0.76182742  0.64289700     0.41000
H1483       H  0.50880211  0.58698030  0.62224378     0.40600
H1484       H  0.49169610  0.58590603  0.66513098     0.35500
C1485       C  0.61366869  0.40848956  0.65258048    -0.26300
C1486       C  0.58331320  0.42906354  0.63892648    -0.14300
C1487       C  0.54978922  0.42351075  0.65692250     0.36300
C1488       C  0.54599090  0.39336386  0.68109484    -0.25700
C1489       C  0.57529788  0.36948144  0.68849905    -0.15000
C1490       C  0.60976177  0.37836562  0.67540144     0.37400
N1491       N  0.64086868  0.35609325  0.68301645    -0.89200
H1492       H  0.64117305  0.41528642  0.64420557     0.18500
H1493       H  0.51955668  0.38711748  0.69279923     0.18500
N1494       N  0.52079277  0.44923960  0.65250558    -0.88200
H1495       H  0.63611070  0.32970761  0.67289091     0.35900
H1496       H  0.64380907  0.35440726  0.71140338     0.41000
H1497       H  0.53006407  0.47499193  0.66093024     0.40600
H1498       H  0.49932714  0.44257245  0.67018891     0.35500
C1499       C  0.61106242  0.48492802  0.67705843    -0.26300
C1500       C  0.61178933  0.49041925  0.63822540    -0.14300
C1501       C  0.64036019  0.51354658  0.62701653     0.36300
C1502       C  0.67361211  0.51221353  0.64660734    -0.25700
C1503       C  0.67661291  0.49203917  0.67984109    -0.15000
C1504       C  0.64390961  0.48107555  0.69652907     0.37400
N1505       N  0.64382724  0.46472411  0.73216107    -0.89200
H1506       H  0.58660448  0.47546621  0.69064997     0.18500
H1507       H  0.69716789  0.52621289  0.63531276     0.18500
N1508       N  0.63647334  0.53599877  0.59495390    -0.88200
H1509       H  0.63315257  0.43821438  0.72980967     0.35900
H1510       H  0.62614160  0.47959022  0.74885805     0.41000
H1511       H  0.66047639  0.55075318  0.59004240     0.40600
H1512       H  0.61630406  0.55533795  0.60058905     0.35500
C1513       C  0.61944914  0.65000198  0.41121774    -0.26300
C1514       C  0.59278519  0.62853429  0.43003994    -0.14300
C1515       C  0.55566663  0.63889117  0.42567715     0.36300
C1516       C  0.54681519  0.66450460  0.39864058    -0.25700
C1517       C  0.57376869  0.68026108  0.37612705    -0.15000
C1518       C  0.61031258  0.67455317  0.38381291     0.37400
N1519       N  0.63827348  0.69329608  0.36361599    -0.89200
H1520       H  0.64809937  0.64444127  0.41475916     0.18500
H1521       H  0.51838212  0.67094142  0.39412262     0.18500
N1522       N  0.52636102  0.62500695  0.44762922    -0.88200
H1523       H  0.65492937  0.67359400  0.35135809     0.35900
H1524       H  0.65410800  0.70816645  0.38217734     0.41000
H1525       H  0.53287795  0.62768716  0.47529826     0.40600
H1526       H  0.52097994  0.59786309  0.44084687     0.35500
C1527       C  0.16785710  0.52095674  0.86787659    -0.26300
C1528       C  0.16800238  0.50535284  0.83230188    -0.14300
C1529       C  0.13406130  0.49852091  0.81605969     0.36300
C1530       C  0.10261262  0.49970236  0.83828245    -0.25700
C1531       C  0.10650856  0.49920782  0.87706236    -0.15000
C1532       C  0.13598080  0.52013279  0.88967276     0.37400
N1533       N  0.13510178  0.53618934  0.92555559    -0.89200
H1534       H  0.19265391  0.53230583  0.87923730     0.18500
H1535       H  0.07675900  0.49232413  0.82611717     0.18500
N1536       N  0.13172893  0.48923234  0.77796161    -0.88200
H1537       H  0.15998076  0.54898820  0.93117471     0.35900
H1538       H  0.11560653  0.55696955  0.92514939     0.41000
H1539       H  0.14070454  0.51195883  0.76298692     0.40600
H1540       H  0.10464780  0.48460918  0.77052409     0.35500
C1541       C  0.33358333  0.48279725  0.62869051    -0.26300
C1542       C  0.31594486  0.45655640  0.65145826    -0.14300
C1543       C  0.32225779  0.41963962  0.64433720     0.36300
C1544       C  0.34597241  0.40992277  0.61563919    -0.25700
C1545       C  0.36524616  0.43620353  0.59324522    -0.15000
C1546       C  0.35692326  0.47328903  0.59982376     0.37400
N1547       N  0.36838510  0.50158470  0.57544040    -0.89200
H1548       H  0.32883554  0.51183737  0.63246827     0.18500
H1549       H  0.34825959  0.38094746  0.61027603     0.18500
N1550       N  0.30405758  0.39181671  0.66525360    -0.88200
H1551       H  0.38151633  0.52165013  0.59063868     0.35900
H1552       H  0.34521151  0.51365119  0.56418537     0.41000
H1553       H  0.32386568  0.37511731  0.67707955     0.40600
H1554       H  0.28881517  0.37569690  0.64723492     0.35500
C1555       C  0.39924012  0.55278822  0.65777270    -0.26300
C1556       C  0.37429245  0.57722877  0.67377336    -0.14300
C1557       C  0.37865133  0.61504827  0.66851072     0.36300
C1558       C  0.40427246  0.62717675  0.64366812    -0.25700
C1559       C  0.42448126  0.60255145  0.62150576    -0.15000
C1560       C  0.42489186  0.56513888  0.63200059     0.37400
N1561       N  0.45181246  0.54016900  0.61843657    -0.89200
H1562       H  0.39807339  0.52380734  0.66431412     0.18500
H1563       H  0.40545743  0.65640067  0.63857249     0.18500
N1564       N  0.35739167  0.64189313  0.68755836    -0.88200
H1565       H  0.43900842  0.51799818  0.60581870     0.35900
H1566       H  0.46617556  0.52974430  0.64075407     0.41000
H1567       H  0.35932067  0.63702599  0.71567898     0.40600
H1568       H  0.33025037  0.63975704  0.67942785     0.35500
C1569       C  0.39703287  0.38064887  0.05615054    -0.26300
C1570       C  0.38749921  0.41837353  0.05655264    -0.14300
C1571       C  0.36297047  0.43011206  0.02886106     0.36300
C1572       C  0.34122517  0.40400794  0.01144244    -0.25700
C1573       C  0.34327814  0.36678613  0.02083678    -0.15000
C1574       C  0.37339392  0.35447884  0.04074978     0.37400
N1575       N  0.37917811  0.31592228  0.04618012    -0.89200
H1576       H  0.41997050  0.37107276  0.07195334     0.18500
H1577       H  0.31975749  0.41366100  0.99368801     0.18500
N1578       N  0.35519240  0.46812167  0.02259563    -0.88200
H1579       H  0.40257271  0.31161691  0.06177406     0.35900
H1580       H  0.38404176  0.30421188  0.02053690     0.41000
H1581       H  0.32756209  0.47289778  0.02744722     0.40600
H1582       H  0.36017849  0.47365939  0.99493434     0.35500
C1583       C  0.54989316  0.62159863  0.89097775    -0.26300
C1584       C  0.54930235  0.58822159  0.87117553    -0.14300
C1585       C  0.52831890  0.58868591  0.83889442     0.36300
C1586       C  0.52541311  0.62198123  0.81945368    -0.25700
C1587       C  0.53699298  0.65518619  0.83541877    -0.15000
C1588       C  0.54581575  0.65491150  0.87310799     0.37400
N1589       N  0.55401246  0.68762427  0.89328791    -0.89200
H1590       H  0.56036864  0.62248993  0.91861906     0.18500
H1591       H  0.51271940  0.62209969  0.79279410     0.18500
N1592       N  0.50613784  0.55778515  0.82851806    -0.88200
H1593       H  0.53040202  0.70315773  0.89645069     0.35900
H1594       H  0.57368214  0.70279230  0.87900421     0.41000
H1595       H  0.51313206  0.53467861  0.84387036     0.40600
H1596       H  0.50972244  0.55179586  0.80079905     0.35500
C1597       C  0.65637977  0.51368520  0.83782592    -0.26300
C1598       C  0.65605855  0.53298397  0.80431441    -0.14300
C1599       C  0.62206410  0.54288704  0.79045396     0.36300
C1600       C  0.59124710  0.54151710  0.81364545    -0.25700
C1601       C  0.59385276  0.53255336  0.85163194    -0.15000
C1602       C  0.62523379  0.51181983  0.86061364     0.37400
N1603       N  0.62760071  0.49357867  0.89521351    -0.89200
H1604       H  0.68155543  0.50188677  0.84760453     0.18500
H1605       H  0.56771124  0.55287164  0.80162185     0.18500
N1606       N  0.61907824  0.55800680  0.75437930    -0.88200
H1607       H  0.64994922  0.50418267  0.90938583     0.35900
H1608       H  0.63271981  0.46586179  0.89018063     0.41000
H1609       H  0.60884519  0.58462505  0.75658920     0.40600
H1610       H  0.60006228  0.54236576  0.73991902     0.35500
C1611       C  0.44156257  0.62608379  0.86498653    -0.26300
C1612       C  0.43583453  0.62944466  0.90313765    -0.14300
C1613       C  0.44340423  0.66566170  0.91678685     0.36300
C1614       C  0.44044314  0.69603660  0.89321943    -0.25700
C1615       C  0.43401715  0.69170995  0.85557697    -0.15000
C1616       C  0.43845877  0.65625103  0.84099270     0.37400
N1617       N  0.44108771  0.65097028  0.80209182    -0.89200
H1618       H  0.44931753  0.60039725  0.85332342     0.18500
H1619       H  0.44245327  0.72327854  0.90486322     0.18500
N1620       N  0.45001477  0.67306341  0.95481583    -0.88200
H1621       H  0.44709048  0.62378828  0.79601364     0.35900
H1622       H  0.46364664  0.66582847  0.79280463     0.41000
H1623       H  0.45032565  0.64908140  0.97022023     0.40600
H1624       H  0.42875537  0.68924265  0.96480451     0.35500
C1625       C  0.39369431  0.56477556  0.86692650    -0.26300
C1626       C  0.38249782  0.57831869  0.90079829    -0.14300
C1627       C  0.34379722  0.57771870  0.90635520     0.36300
C1628       C  0.32056739  0.58184225  0.87602623    -0.25700
C1629       C  0.33479655  0.58149638  0.84042073    -0.15000
C1630       C  0.37142840  0.56937121  0.83601125     0.37400
N1631       N  0.38639077  0.56172884  0.80057224    -0.89200
H1632       H  0.42053328  0.55310050  0.86399982     0.18500
H1633       H  0.29168738  0.58595269  0.88034850     0.18500
N1634       N  0.32878934  0.57588873  0.94270294    -0.88200
H1635       H  0.39795048  0.53556038  0.80111326     0.35900
H1636       H  0.40757098  0.58001308  0.79571974     0.41000
H1637       H  0.33637845  0.55075781  0.95403809     0.40600
H1638       H  0.30033972  0.57606399  0.94187507     0.35500
C1639       C  0.36321810  0.65368296  0.91578108    -0.26300
C1640       C  0.38153279  0.63125973  0.94197770    -0.14300
C1641       C  0.37278050  0.63646893  0.97913418     0.36300
C1642       C  0.34761729  0.66420290  0.98864571    -0.25700
C1643       C  0.33026534  0.68663196  0.96197480    -0.15000
C1644       C  0.33812302  0.68032882  0.92500931     0.37400
N1645       N  0.32119269  0.70015213  0.89585390    -0.89200
H1646       H  0.36849269  0.64990544  0.88682880     0.18500
H1647       H  0.34174509  0.66831355  0.01739303     0.18500
N1648       N  0.38898746  0.61407782  0.00692679    -0.88200
H1649       H  0.32836081  0.72783847  0.89776141     0.35900
H1650       H  0.29295465  0.69710164  0.89809266     0.41000
H1651       H  0.37857719  0.58754305  0.00387081     0.40600
H1652       H  0.38085586  0.62280205  0.03292568     0.35500
C1653       C  0.37382167  0.38757606  0.93029192    -0.26300
C1654       C  0.41007915  0.37485310  0.92595077    -0.14300
C1655       C  0.41271055  0.33574355  0.92704974     0.36300
C1656       C  0.38214240  0.31332979  0.91887833    -0.25700
C1657       C  0.34795326  0.32845906  0.91137709    -0.15000
C1658       C  0.34413320  0.36671165  0.91730503     0.37400
N1659       N  0.31076007  0.38513440  0.90877830    -0.89200
H1660       H  0.36919721  0.41646440  0.93510168     0.18500
H1661       H  0.38512574  0.28379433  0.91958925     0.18500
N1662       N  0.44228251  0.31858688  0.94541685    -0.88200
H1663       H  0.31613243  0.40415216  0.88805623     0.35900
H1664       H  0.30214004  0.39997246  0.93161716     0.41000
H1665       H  0.45092523  0.29638633  0.92953423     0.40600
H1666       H  0.43246161  0.30778791  0.97008265     0.35500
C1667       C  0.39882548  0.45824102  0.88385938    -0.26300
C1668       C  0.41170499  0.42233634  0.87793865    -0.14300
C1669       C  0.39338050  0.40134522  0.84990437     0.36300
C1670       C  0.36634371  0.41726061  0.82828605    -0.25700
C1671       C  0.35294326  0.45167775  0.83667416    -0.15000
C1672       C  0.36690534  0.47048294  0.86689802     0.37400
N1673       N  0.34647935  0.49994616  0.88246065    -0.89200
H1674       H  0.41068279  0.47603042  0.90396725     0.18500
H1675       H  0.35501256  0.40208491  0.80549368     0.18500
N1676       N  0.40090241  0.36326159  0.84400935    -0.88200
H1677       H  0.35747690  0.50659208  0.90792886     0.35900
H1678       H  0.32035219  0.48999706  0.88834600     0.41000
H1679       H  0.40753111  0.35983113  0.81640624     0.40600
H1680       H  0.37673443  0.34860486  0.84787223     0.35500
C1681       C  0.47371278  0.39685535  0.84501301    -0.26300
C1682       C  0.46838537  0.38448572  0.88145784    -0.14300
C1683       C  0.48599567  0.35110260  0.88943197     0.36300
C1684       C  0.48928225  0.32465261  0.86144196    -0.25700
C1685       C  0.48068896  0.33372363  0.82502633    -0.15000
C1686       C  0.47792230  0.37155291  0.81640132     0.37400
N1687       N  0.47766089  0.38519588  0.77940852    -0.89200
H1688       H  0.46846097  0.42518673  0.83787244     0.18500
H1689       H  0.49986057  0.29771657  0.86785075     0.18500
N1690       N  0.50444014  0.34528136  0.92350675    -0.88200
H1691       H  0.45206482  0.39664938  0.77464635     0.35900
H1692       H  0.48108536  0.36440713  0.76014065     0.41000
H1693       H  0.50052612  0.36747971  0.94103723     0.40600
H1694       H  0.53234201  0.34402393  0.91794571     0.35500
C1695       C  0.51435568  0.63412858  0.13298558    -0.26300
C1696       C  0.53785221  0.63906988  0.10328385    -0.14300
C1697       C  0.54541242  0.67693902  0.09573831     0.36300
C1698       C  0.54824817  0.70211212  0.12496008    -0.25700
C1699       C  0.53851901  0.69096992  0.16028944    -0.15000
C1700       C  0.51682405  0.65845394  0.16318222     0.37400
N1701       N  0.49865620  0.64948659  0.19696068    -0.89200
H1702       H  0.49954701  0.60848779  0.13560058     0.18500
H1703       H  0.55912818  0.72935769  0.12016307     0.18500
N1704       N  0.55016816  0.68962222  0.05895373    -0.88200
H1705       H  0.48459457  0.62460972  0.19467216     0.35900
H1706       H  0.47914422  0.66971517  0.20178489     0.41000
H1707       H  0.57476702  0.70405665  0.05743914     0.40600
H1708       H  0.52944951  0.70840651  0.05356957     0.35500
C1709       C  0.61601031  0.35244639  0.03219422    -0.26300
C1710       C  0.62438939  0.39047679  0.03017484    -0.14300
C1711       C  0.65617078  0.39881279  0.01008360     0.36300
C1712       C  0.68433838  0.37223008  0.00808787    -0.25700
C1713       C  0.67940940  0.33636214  0.02240706    -0.15000
C1714       C  0.64344014  0.32591998  0.03176434     0.37400
N1715       N  0.63335214  0.28871114  0.04059922    -0.89200
H1716       H  0.58888868  0.34331761  0.03962782     0.18500
H1717       H  0.70961461  0.37902113  0.99419632     0.18500
N1718       N  0.66004792  0.43404271  0.99275891    -0.88200
H1719       H  0.62312909  0.28862609  0.06734737     0.35900
H1720       H  0.65569296  0.27119038  0.04083873     0.41000
H1721       H  0.64001319  0.43591198  0.97262939     0.40600
H1722       H  0.68515463  0.43582838  0.97927686     0.35500
C1723       C  0.99161126  0.66305700  0.35212366    -0.26300
C1724       C  0.01385874  0.69461299  0.34581162    -0.14300
C1725       C  0.03448504  0.70725492  0.37541084     0.36300
C1726       C  0.03916950  0.68376095  0.40526433    -0.25700
C1727       C  0.03069146  0.64555372  0.40176963    -0.15000
C1728       C  0.99977649  0.63830147  0.38037397     0.37400
N1729       N  0.97878486  0.60526166  0.38396383    -0.89200
H1730       H  0.97055074  0.65521939  0.33296608     0.18500
H1731       H  0.05520370  0.69422030  0.42773447     0.18500
N1732       N  0.05242695  0.74220154  0.37536891    -0.88200
H1733       H  0.99540089  0.58258433  0.37946518     0.35900
H1734       H  0.96874042  0.60392541  0.41073382     0.41000
H1735       H  0.03301325  0.76253221  0.37086870     0.40600
H1736       H  0.07138274  0.74285860  0.35399554     0.35500
C1737       C  0.92891699  0.46989831  0.64079712    -0.26300
C1738       C  0.91771632  0.44055622  0.61889977    -0.14300
C1739       C  0.87917261  0.43810690  0.61352091     0.36300
C1740       C  0.85556029  0.45092893  0.64072463    -0.25700
C1741       C  0.86921497  0.47029607  0.67063253    -0.15000
C1742       C  0.90564999  0.48339905  0.66834058     0.37400
N1743       N  0.91934392  0.50986344  0.69379670    -0.89200
H1744       H  0.95632667  0.48055881  0.63825180     0.18500
H1745       H  0.82663830  0.44550850  0.63834919     0.18500
N1746       N  0.86390763  0.42324444  0.58062888    -0.88200
H1747       H  0.92878586  0.53253195  0.67897904     0.35900
H1748       H  0.94154570  0.49838627  0.70736805     0.41000
H1749       H  0.84849068  0.44369531  0.56811838     0.40600
H1750       H  0.84599331  0.40203592  0.58778274     0.35500
C1751       C  0.98948584  0.36148251  0.61780902    -0.26300
C1752       C  0.97476650  0.39593714  0.62828199    -0.14300
C1753       C  0.97622517  0.40326277  0.66652816     0.36300
C1754       C  0.97614413  0.37379354  0.69148049    -0.25700
C1755       C  0.97980191  0.33748977  0.67956892    -0.15000
C1756       C  0.99064388  0.33201086  0.64280781     0.37400
N1757       N  0.00227881  0.29680415  0.63009222    -0.89200
H1758       H  0.99356519  0.35555003  0.58903890     0.18500
H1759       H  0.97542947  0.37935611  0.72061734     0.18500
N1760       N  0.98391720  0.43935963  0.67993092    -0.88200
H1761       H  0.98141564  0.27788465  0.63527098     0.35900
H1762       H  0.02511624  0.28897791  0.64513615     0.41000
H1763       H  0.00945030  0.44714061  0.66974262     0.40600
H1764       H  0.98581460  0.43957650  0.70846948     0.35500
C1765       C  0.84778846  0.62269171  0.59552781    -0.26300
C1766       C  0.86306220  0.59161418  0.57714561    -0.14300
C1767       C  0.84595248  0.55749540  0.58380547     0.36300
C1768       C  0.81875979  0.55495113  0.61122925    -0.25700
C1769       C  0.80765963  0.58584765  0.63169771    -0.15000
C1770       C  0.82081827  0.62022727  0.62195758     0.37400
N1771       N  0.81056605  0.65267460  0.64150605    -0.89200
H1772       H  0.86055116  0.64921881  0.59315206     0.18500
H1773       H  0.80883390  0.52800103  0.61907525     0.18500
N1774       N  0.85714782  0.52506613  0.56534265    -0.88200
H1775       H  0.81780323  0.64969715  0.66897757     0.35900
H1776       H  0.78227895  0.65526529  0.64000241     0.41000
H1777       H  0.83430967  0.51330366  0.55295449     0.40600
H1778       H  0.86693525  0.50683125  0.58495155     0.35500
C1779       C  0.09389914  0.56025281  0.67912555    -0.26300
C1780       C  0.09737642  0.54669782  0.64248774    -0.14300
C1781       C  0.12764588  0.52327377  0.63703201     0.36300
C1782       C  0.15795228  0.52579158  0.66063086    -0.25700
C1783       C  0.15804505  0.54911578  0.69157989    -0.15000
C1784       C  0.12432383  0.56335631  0.70280169     0.37400
N1785       N  0.12140059  0.58291393  0.73679091    -0.89200
H1786       H  0.06951416  0.57318370  0.68850423     0.18500
H1787       H  0.18238306  0.51091275  0.65330449     0.18500
N1788       N  0.13030490  0.50159587  0.60452424    -0.88200
H1789       H  0.09456751  0.59118084  0.74144384     0.35900
H1790       H  0.13692155  0.60689861  0.73432255     0.41000
H1791       H  0.13400001  0.47430978  0.61242655     0.40600
H1792       H  0.15349637  0.50988416  0.58998533     0.35500
C1793       C  0.98522767  0.65869890  0.84058520    -0.26300
C1794       C  0.97129911  0.69463638  0.84568183    -0.14300
C1795       C  0.97273354  0.70853953  0.88174008     0.36300
C1796       C  0.97834688  0.68359008  0.91066236    -0.25700
C1797       C  0.97443149  0.64582985  0.90459022    -0.15000
C1798       C  0.98857072  0.63462274  0.87041310     0.37400
N1799       N  0.99927690  0.59734208  0.86469176    -0.89200
H1800       H  0.99070371  0.64802766  0.81348699     0.18500
H1801       H  0.98609464  0.69306119  0.93736451     0.18500
N1802       N  0.96954916  0.74678987  0.88968015    -0.88200
H1803       H  0.02606679  0.59759214  0.85494021     0.35900
H1804       H  0.98292488  0.58608770  0.84418421     0.41000
H1805       H  0.94376280  0.75553218  0.88159117     0.40600
H1806       H  0.98929235  0.76094967  0.87449929     0.35500
C1807       C  0.06365090  0.83706091  0.83418097    -0.26300
C1808       C  0.02644087  0.83409219  0.82883494    -0.14300
C1809       C  0.00280915  0.85128862  0.85499451     0.36300
C1810       C  0.01709401  0.87255844  0.88373207    -0.25700
C1811       C  0.05469960  0.87826097  0.88747895    -0.15000
C1812       C  0.07798888  0.85821485  0.86264150     0.37400
N1813       N  0.11687527  0.85931261  0.86585031    -0.89200
H1814       H  0.08220188  0.82349781  0.81550005     0.18500
H1815       H  0.99812022  0.88463421  0.90266697     0.18500
N1816       N  0.96396352  0.84767295  0.85371808    -0.88200
H1817       H  0.12768762  0.86801053  0.84083472     0.35900
H1818       H  0.12598250  0.83246517  0.86959921     0.41000
H1819       H  0.95702476  0.81985860  0.85322199     0.40600
H1820       H  0.95414312  0.86084617  0.83039449     0.35500
C1821       C  0.01972000  0.62871891  0.66772066    -0.26300
C1822       C  0.03709790  0.66363376  0.66618087    -0.14300
C1823       C  0.06031547  0.67033803  0.63611767     0.36300
C1824       C  0.06987448  0.64122030  0.61293574    -0.25700
C1825       C  0.05997976  0.60420259  0.62110870    -0.15000
C1826       C  0.02949221  0.59972635  0.64416133     0.37400
N1827       N  0.01171426  0.56462659  0.64699861    -0.89200
H1828       H  0.99868483  0.62345568  0.68790885     0.18500
H1829       H  0.08790221  0.64751506  0.59025906     0.18500
N1830       N  0.07445916  0.70612752  0.62811539    -0.88200
H1831       H  0.99868231  0.55969362  0.62210980     0.35900
H1832       H  0.99120430  0.56534109  0.66689452     0.41000
H1833       H  0.09020655  0.71488493  0.65021484     0.40600
H1834       H  0.05261270  0.72407992  0.62472380     0.35500
C1835       C  0.95032403  0.66859147  0.61232261    -0.26300
C1836       C  0.92985981  0.66316082  0.64452752    -0.14300
C1837       C  0.91780085  0.62736821  0.65267995     0.36300
C1838       C  0.91844061  0.60123799  0.62444321    -0.25700
C1839       C  0.92564124  0.61290087  0.58793727    -0.15000
C1840       C  0.95065845  0.64206361  0.58502142     0.37400
N1841       N  0.97880441  0.64251250  0.55768575    -0.89200
H1842       H  0.96668479  0.69311525  0.60856544     0.18500
H1843       H  0.90628880  0.57457639  0.62941115     0.18500
N1844       N  0.90318726  0.61830740  0.68807942    -0.88200
H1845       H  0.99430957  0.66656479  0.55949261     0.35900
H1846       H  0.99674497  0.62143622  0.56431036     0.41000
H1847       H  0.92463341  0.61967408  0.70675223     0.40600
H1848       H  0.89383949  0.59120034  0.68850820     0.35500
C1849       C  0.67564342  0.11095000  0.52685721    -0.26300
C1850       C  0.63760493  0.11675113  0.52153246    -0.14300
C1851       C  0.63086840  0.14919385  0.50214923     0.36300
C1852       C  0.65325888  0.18022049  0.50876557    -0.25700
C1853       C  0.68626465  0.17693119  0.52855665    -0.15000
C1854       C  0.69914545  0.14081113  0.53377192     0.37400
N1855       N  0.73461993  0.13341636  0.54779450    -0.89200
H1856       H  0.68574834  0.08383082  0.53286096     0.18500
H1857       H  0.64550274  0.20647351  0.49738179     0.18500
N1858       N  0.60525928  0.14879508  0.47256658    -0.88200
H1859       H  0.73717047  0.14601680  0.57332728     0.35900
H1860       H  0.75357109  0.14480055  0.52972855     0.41000
H1861       H  0.60510598  0.17428406  0.45942187     0.40600
H1862       H  0.61435289  0.12969561  0.45331380     0.35500
C1863       C  0.64125243  0.36991460  0.46690495    -0.26300
C1864       C  0.64549223  0.33409236  0.45359766    -0.14300
C1865       C  0.61459281  0.31559795  0.44101628     0.36300
C1866       C  0.58168672  0.33495631  0.43658662    -0.25700
C1867       C  0.57849920  0.37319582  0.44423495    -0.15000
C1868       C  0.60839855  0.38905726  0.46348859     0.37400
N1869       N  0.60719556  0.42633763  0.47581888    -0.89200
H1870       H  0.66387258  0.38326177  0.48058018     0.18500
H1871       H  0.56137318  0.32004915  0.42218693     0.18500
N1872       N  0.61677812  0.27718958  0.43239320    -0.88200
H1873       H  0.62873720  0.44076996  0.46366155     0.35900
H1874       H  0.61165994  0.42655285  0.50394448     0.41000
H1875       H  0.63466449  0.27437394  0.41026116     0.40600
H1876       H  0.59153040  0.26709322  0.42383453     0.35500
C1877       C  0.87733008  0.33156629  0.61272634    -0.26300
C1878       C  0.87066148  0.32171505  0.57693659    -0.14300
C1879       C  0.89362134  0.33596397  0.54872868     0.36300
C1880       C  0.91894141  0.36408294  0.55652238    -0.25700
C1881       C  0.92200629  0.37825105  0.59207363    -0.15000
C1882       C  0.90189070  0.35968793  0.62075689     0.37400
N1883       N  0.90273478  0.37213634  0.65792563    -0.89200
H1884       H  0.85972980  0.32112567  0.63429010     0.18500
H1885       H  0.93479281  0.37590479  0.53440695     0.18500
N1886       N  0.89000153  0.32411168  0.51141855    -0.88200
H1887       H  0.90812175  0.34952173  0.67459298     0.35900
H1888       H  0.87665370  0.38100004  0.66513460     0.41000
H1889       H  0.87104861  0.30276774  0.50934531     0.40600
H1890       H  0.91497942  0.31293378  0.50349346     0.35500
C1891       C  0.63827582  0.37816399  0.57017184    -0.26300
C1892       C  0.67468726  0.38846327  0.57473685    -0.14300
C1893       C  0.68312747  0.42636569  0.57528940     0.36300
C1894       C  0.65509285  0.45182511  0.57796979    -0.25700
C1895       C  0.61870862  0.44088918  0.58376550    -0.15000
C1896       C  0.61032813  0.40393749  0.57301955     0.37400
N1897       N  0.57348368  0.39115404  0.57024486    -0.89200
H1898       H  0.63119150  0.34976191  0.56493037     0.18500
H1899       H  0.66298175  0.47988181  0.57546481     0.18500
N1900       N  0.71969626  0.44023583  0.57385016    -0.88200
H1901       H  0.56946395  0.36995080  0.58916163     0.35900
H1902       H  0.56989740  0.38023995  0.54405775     0.41000
H1903       H  0.73113541  0.43425566  0.54834500     0.40600
H1904       H  0.73487730  0.42797101  0.59462963     0.35500
C1905       C  0.82484918  0.38714618  0.40089542    -0.26300
C1906       C  0.81452379  0.39290000  0.43700258    -0.14300
C1907       C  0.82878829  0.42401767  0.45547873     0.36300
C1908       C  0.85807773  0.44364721  0.43993919    -0.25700
C1909       C  0.87461477  0.43234056  0.40698398    -0.15000
C1910       C  0.85357069  0.40709335  0.38523758     0.37400
N1911       N  0.86276819  0.39896215  0.34805884    -0.89200
H1912       H  0.81211256  0.36541205  0.38521880     0.18500
H1913       H  0.86696902  0.46797078  0.45389870     0.18500
N1914       N  0.81456560  0.43499665  0.49051332    -0.88200
H1915       H  0.83994017  0.40481660  0.33213872     0.35900
H1916       H  0.86699421  0.37078602  0.34556627     0.41000
H1917       H  0.78792331  0.44405741  0.48641652     0.40600
H1918       H  0.82907519  0.45735977  0.50095825     0.35500
C1919       C  0.17748236  0.93973419  0.62195247    -0.26300
C1920       C  0.17755963  0.91775365  0.65405030    -0.14300
C1921       C  0.14568013  0.89808455  0.66216360     0.36300
C1922       C  0.11589048  0.90014419  0.63869575    -0.25700
C1923       C  0.11424969  0.92297780  0.60674189    -0.15000
C1924       C  0.14652941  0.94292429  0.59886103     0.37400
N1925       N  0.14892186  0.96426828  0.56595107    -0.89200
H1926       H  0.20189244  0.95481081  0.61459859     0.18500
H1927       H  0.09501002  0.88028649  0.64475203     0.18500
N1928       N  0.14298702  0.87377809  0.69291122    -0.88200
H1929       H  0.17419945  0.97740782  0.56387538     0.35900
H1930       H  0.12906829  0.98456246  0.56696605     0.41000
H1931       H  0.14478959  0.88902766  0.71700238     0.40600
H1932       H  0.16431855  0.85492699  0.69165693     0.35500
C1933       C  0.03909435  0.91231141  0.62900815    -0.26300
C1934       C  0.04936086  0.89994109  0.59397693    -0.14300
C1935       C  0.02734532  0.87263963  0.57776933     0.36300
C1936       C  0.00841292  0.84876304  0.60105312    -0.25700
C1937       C  0.01033822  0.85368790  0.63908650    -0.15000
C1938       C  0.02280747  0.88757422  0.65314527     0.37400
N1939       N  0.02165121  0.89689150  0.69135545    -0.89200
H1940       H  0.05055778  0.93739290  0.63993067     0.18500
H1941       H  0.99561259  0.82443569  0.58985377     0.18500
N1942       N  0.02836557  0.86641066  0.53897717    -0.88200
H1943       H  0.04845293  0.89799192  0.70083905     0.35900
H1944       H  0.00799972  0.87710761  0.70681632     0.41000
H1945       H  0.01647765  0.88916338  0.52647083     0.40600
H1946       H  0.01209322  0.84386222  0.53213947     0.35500
C1947       C  0.14541125  0.03948989  0.60959779    -0.26300
C1948       C  0.13557809  0.02524262  0.64384178    -0.14300
C1949       C  0.09844948  0.02374485  0.65383362     0.36300
C1950       C  0.07442711  0.04649561  0.63552278    -0.25700
C1951       C  0.08700876  0.06901134  0.60668201    -0.15000
C1952       C  0.11971014  0.05815485  0.58883386     0.37400
N1953       N  0.12829347  0.06735577  0.55150781    -0.89200
H1954       H  0.17292103  0.03666655  0.59921212     0.18500
H1955       H  0.04739370  0.05022311  0.64682690     0.18500
N1956       N  0.08589693  0.00164912  0.68403368    -0.88200
H1957       H  0.15021072  0.08573597  0.55118271     0.35900
H1958       H  0.10621237  0.07961742  0.53855668     0.41000
H1959       H  0.09104397  0.97426414  0.67744179     0.40600
H1960       H  0.05770123  0.00391112  0.68731230     0.35500
C1961       C  0.03024676  0.18267294  0.65752454    -0.26300
C1962       C  0.05813977  0.18419047  0.68389152    -0.14300
C1963       C  0.08107791  0.15362219  0.68735142     0.36300
C1964       C  0.07702223  0.12390072  0.66365341    -0.25700
C1965       C  0.05268600  0.12389960  0.63334304    -0.15000
C1966       C  0.02702490  0.15286144  0.63265266     0.37400
N1967       N  0.99726609  0.15156476  0.60738887    -0.89200
H1968       H  0.01006760  0.20425835  0.65720154     0.18500
H1969       H  0.09691808  0.10258983  0.66721031     0.18500
N1970       N  0.10912759  0.15155231  0.71473953    -0.88200
H1971       H  0.98084056  0.17473593  0.61021402     0.35900
H1972       H  0.98114013  0.12887370  0.61426928     0.41000
H1973       H  0.11104537  0.17559587  0.73007358     0.40600
H1974       H  0.13408053  0.14910703  0.70108908     0.35500
C1975       C  0.11753318  0.01944838  0.37027802    -0.26300
C1976       C  0.11317767  0.05663962  0.37884468    -0.14300
C1977       C  0.13690020  0.08224331  0.35984045     0.36300
C1978       C  0.16357217  0.07053595  0.33521875    -0.25700
C1979       C  0.16890345  0.03379986  0.32799854    -0.15000
C1980       C  0.14495813  0.00785299  0.34533422     0.37400
N1981       N  0.14827316  0.96944724  0.33795560    -0.89200
H1982       H  0.10013487  0.99913381  0.38304518     0.18500
H1983       H  0.18115958  0.09084525  0.32246845     0.18500
N1984       N  0.13505953  0.12096226  0.36614477    -0.88200
H1985       H  0.12341891  0.96002293  0.32766905     0.35900
H1986       H  0.15310701  0.95595949  0.36271356     0.41000
H1987       H  0.16058260  0.12971221  0.37511043     0.40600
H1988       H  0.13173604  0.13371125  0.34081204     0.35500
C1989       C  0.93966461  0.91617888  0.67048493    -0.26300
C1990       C  0.92500795  0.91529130  0.63504764    -0.14300
C1991       C  0.91875911  0.87916678  0.62174026     0.36300
C1992       C  0.91200258  0.85023075  0.64668622    -0.25700
C1993       C  0.91542967  0.85522457  0.68496640    -0.15000
C1994       C  0.93193882  0.88834163  0.69658492     0.37400
N1995       N  0.94107173  0.89382521  0.73436930    -0.89200
H1996       H  0.95696826  0.93870443  0.67780664     0.18500
H1997       H  0.90311506  0.82404113  0.63589776     0.18500
N1998       N  0.91556130  0.87266676  0.58321095    -0.88200
H1999       H  0.91662848  0.89581602  0.74896993     0.35900
H2000       H  0.95439815  0.91897550  0.73780680     0.41000
H2001       H  0.89005230  0.86095060  0.57821421     0.40600
H2002       H  0.93504265  0.85324133  0.57580587     0.35500
C2003       C  0.85873935  0.99856649  0.63573368    -0.26300
C2004       C  0.89016398  0.97920248  0.64596944    -0.14300
C2005       C  0.89532471  0.97808849  0.68459579     0.36300
C2006       C  0.86463432  0.97460446  0.70785733    -0.25700
C2007       C  0.82979465  0.98138098  0.69403556    -0.15000
C2008       C  0.82791795  0.99809280  0.65864731     0.37400
N2009       N  0.79521036  0.01399326  0.64465748    -0.89200
H2010       H  0.85521999  0.00659759  0.60741704     0.18500
H2011       H  0.86811644  0.96842470  0.73662348     0.18500
N2012       N  0.92932128  0.98999874  0.69990209    -0.88200
H2013       H  0.78494867  0.03235750  0.66402844     0.35900
H2014       H  0.77614287  0.99336351  0.63951366     0.41000
H2015       H  0.92801288  0.98983035  0.72849958     0.40600
H2016       H  0.93359471  0.01720978  0.69188538     0.35500
C2017       C  0.89388294  0.16770180  0.45258916    -0.26300
C2018       C  0.88391509  0.13232481  0.46589052    -0.14300
C2019       C  0.85684552  0.13177795  0.49325185     0.36300
C2020       C  0.83266601  0.16175539  0.49567389    -0.25700
C2021       C  0.83595769  0.19283451  0.47258579    -0.15000
C2022       C  0.86913230  0.19712147  0.45339109     0.37400
N2023       N  0.87879082  0.23047538  0.43461164    -0.89200
H2024       H  0.91889183  0.17148342  0.43722217     0.18500
H2025       H  0.81053535  0.16048697  0.51515040     0.18500
N2026       N  0.85033920  0.09892904  0.51404155    -0.88200
H2027       H  0.90173268  0.24145029  0.44751134     0.35900
H2028       H  0.85831748  0.25010956  0.43668996     0.41000
H2029       H  0.87298084  0.09488338  0.53076560     0.40600
H2030       H  0.82798420  0.10233284  0.53149112     0.35500
C2031       C  0.98473444  0.87435865  0.32989918    -0.26300
C2032       C  0.97014092  0.83852341  0.33265388    -0.14300
C2033       C  0.96916063  0.82260000  0.36784051     0.36300
C2034       C  0.97434182  0.84538128  0.39873414    -0.25700
C2035       C  0.97360061  0.88426796  0.39452650    -0.15000
C2036       C  0.98975359  0.89592727  0.36159707     0.37400
N2037       N  0.01413295  0.92686401  0.36158393    -0.89200
H2038       H  0.99372111  0.88472212  0.30356190     0.18500
H2039       H  0.97047037  0.83352369  0.42566145     0.18500
N2040       N  0.96216959  0.78402779  0.37209104    -0.88200
H2041       H  0.02514400  0.93081368  0.33544429     0.35900
H2042       H  0.03582825  0.92061964  0.37889880     0.41000
H2043       H  0.93570311  0.77889427  0.36296445     0.40600
H2044       H  0.96271831  0.77671902  0.39974852     0.35500
C2045       C  0.69086880  0.64308246  0.47541313    -0.26300
C2046       C  0.67367600  0.67717953  0.47880261    -0.14300
C2047       C  0.63750948  0.67699458  0.49394340     0.36300
C2048       C  0.61856336  0.64365352  0.49807890    -0.25700
C2049       C  0.63261500  0.61171029  0.48176210    -0.15000
C2050       C  0.67125551  0.61055560  0.48213651     0.37400
N2051       N  0.68967513  0.58225340  0.50212778    -0.89200
H2052       H  0.72000467  0.64180851  0.47137140     0.18500
H2053       H  0.58984914  0.64488070  0.50478220     0.18500
N2054       N  0.61802509  0.70972401  0.50300417    -0.88200
H2055       H  0.71189344  0.57297743  0.48681475     0.35900
H2056       H  0.67203053  0.56021181  0.50725882     0.41000
H2057       H  0.61629077  0.72636703  0.47977406     0.40600
H2058       H  0.63152182  0.72344025  0.52408765     0.35500
C2059       C  0.86610055  0.69386972  0.53866936    -0.26300
C2060       C  0.82964160  0.68355410  0.53310262    -0.14300
C2061       C  0.82366925  0.64874533  0.51611360     0.36300
C2062       C  0.85302593  0.62411637  0.51111489    -0.25700
C2063       C  0.88705350  0.63092116  0.52798936    -0.15000
C2064       C  0.89484366  0.66899344  0.53249935     0.37400
N2065       N  0.92744889  0.68458757  0.51735465    -0.89200
H2066       H  0.87257510  0.72263839  0.54259077     0.18500
H2067       H  0.84670567  0.59645260  0.50226390     0.18500
N2068       N  0.78810437  0.63703579  0.50451421    -0.88200
H2069       H  0.94142435  0.69880271  0.53775257     0.35900
H2070       H  0.94376887  0.66439158  0.50550736     0.41000
H2071       H  0.76829268  0.65601437  0.51207207     0.40600
H2072       H  0.78162988  0.61303388  0.51885927     0.35500
C2073       C  0.64093596  0.84492550  0.60076483    -0.26300
C2074       C  0.65613176  0.84987678  0.56661794    -0.14300
C2075       C  0.64203332  0.87806197  0.54382541     0.36300
C2076       C  0.60825643  0.89445402  0.55190630    -0.25700
C2077       C  0.59050209  0.88745164  0.58514037    -0.15000
C2078       C  0.60982677  0.86444802  0.61109103     0.37400
N2079       N  0.59780143  0.85961122  0.64806722    -0.89200
H2080       H  0.65254568  0.82499889  0.61934835     0.18500
H2081       H  0.59683470  0.91380633  0.53275096     0.18500
N2082       N  0.66271348  0.89051524  0.51282750    -0.88200
H2083       H  0.61849530  0.86935308  0.66510071     0.35900
H2084       H  0.59544775  0.83163045  0.65359643     0.41000
H2085       H  0.68748699  0.90072176  0.52255996     0.40600
H2086       H  0.64971457  0.91267107  0.50037618     0.35500
C2087       C  0.86940915  0.83072099  0.40657152    -0.26300
C2088       C  0.86212125  0.82167753  0.44237067    -0.14300
C2089       C  0.88376622  0.83726327  0.47070989     0.36300
C2090       C  0.90988495  0.86450285  0.46264779    -0.25700
C2091       C  0.91491911  0.87669228  0.42655948    -0.15000
C2092       C  0.89460515  0.85799165  0.39813955     0.37400
N2093       N  0.89770594  0.86797393  0.36026470    -0.89200
H2094       H  0.85256290  0.81947532  0.38495291     0.18500
H2095       H  0.92563448  0.87645773  0.48461513     0.18500
N2096       N  0.87907227  0.82631100  0.50810374    -0.88200
H2097       H  0.87227336  0.87730160  0.35172802     0.35900
H2098       H  0.90202838  0.84411276  0.34516356     0.41000
H2099       H  0.88227718  0.79787388  0.50961452     0.40600
H2100       H  0.85275494  0.83270437  0.51670982     0.35500
C2101       C  0.81941995  0.88490342  0.60987184    -0.26300
C2102       C  0.81253455  0.88541198  0.57271042    -0.14300
C2103       C  0.82876867  0.91280003  0.55102591     0.36300
C2104       C  0.85521699  0.93615949  0.56592108    -0.25700
C2105       C  0.86766447  0.93182764  0.60222875    -0.15000
C2106       C  0.84511447  0.90876527  0.62518727     0.37400
N2107       N  0.84884003  0.90784558  0.66408035    -0.89200
H2108       H  0.80500011  0.86555410  0.62727723     0.18500
H2109       H  0.86439933  0.95762777  0.54817469     0.18500
N2110       N  0.82010546  0.91567207  0.51303490    -0.88200
H2111       H  0.82338445  0.91434473  0.67498537     0.35900
H2112       H  0.85256999  0.88071374  0.67205781     0.41000
H2113       H  0.84416285  0.91115290  0.49850930     0.40600
H2114       H  0.81137714  0.94241505  0.50779761     0.35500
C2115       C  0.67612907  0.91203742  0.42685053    -0.26300
C2116       C  0.66833140  0.87451508  0.43128909    -0.14300
C2117       C  0.63206007  0.86391945  0.43818066     0.36300
C2118       C  0.60465482  0.88988085  0.43497158    -0.25700
C2119       C  0.61146363  0.92393904  0.41871762    -0.15000
C2120       C  0.64776730  0.93729241  0.42240998     0.37400
N2121       N  0.65556347  0.97582315  0.41926909    -0.89200
H2122       H  0.70410610  0.92157923  0.42685801     0.18500
H2123       H  0.57913038  0.88399273  0.44762078     0.18500
N2124       N  0.62314777  0.82783301  0.45112783    -0.88200
H2125       H  0.68345171  0.98080359  0.42216116     0.35900
H2126       H  0.64256944  0.98893891  0.44109369     0.41000
H2127       H  0.60438948  0.81624460  0.43300918     0.40600
H2128       H  0.61049024  0.83023674  0.47668867     0.35500
C2129       C  0.65327602  0.93831425  0.31116427    -0.26300
C2130       C  0.65999439  0.97427036  0.30203720    -0.14300
C2131       C  0.64078128  0.00229752  0.32110427     0.36300
C2132       C  0.61477957  0.99320873  0.34868778    -0.25700
C2133       C  0.61017975  0.95656294  0.36018720    -0.15000
C2134       C  0.63125871  0.92919904  0.34075807     0.37400
N2135       N  0.63237061  0.89156999  0.35217744    -0.89200
H2136       H  0.66911173  0.91683143  0.29817466     0.18500
H2137       H  0.59998910  0.01485903  0.36230757     0.18500
N2138       N  0.64806671  0.04016571  0.31363713    -0.88200
H2139       H  0.65910102  0.88598722  0.35990565     0.35900
H2140       H  0.62847047  0.87512507  0.32921467     0.41000
H2141       H  0.64361249  0.04473457  0.28577391     0.40600
H2142       H  0.67552425  0.04542311  0.31902962     0.35500
C2143       C  0.66556082  0.02985384  0.15355589    -0.26300
C2144       C  0.67423803  0.05400662  0.18265270    -0.14300
C2145       C  0.64843969  0.07988705  0.19254794     0.36300
C2146       C  0.61713521  0.08396807  0.17132450    -0.25700
C2147       C  0.60951761  0.06330557  0.13864581    -0.15000
C2148       C  0.63409474  0.03424594  0.13173211     0.37400
N2149       N  0.62883868  0.01026855  0.10130773    -0.89200
H2150       H  0.68425892  0.00813912  0.14627742     0.18500
H2151       H  0.60270849  0.10829561  0.17848900     0.18500
N2152       N  0.65485871  0.10425195  0.22262324    -0.88200
H2153       H  0.62628946  0.98355388  0.11144124     0.35900
H2154       H  0.65231844  0.01120665  0.08508396     0.41000
H2155       H  0.63311969  0.10162185  0.24101203     0.40600
H2156       H  0.65502819  0.13114920  0.21265411     0.35500
C2157       C  0.84735549  0.04722435  0.37100678    -0.26300
C2158       C  0.81706241  0.06999764  0.36558097    -0.14300
C2159       C  0.80446134  0.09051391  0.39550791     0.36300
C2160       C  0.82578315  0.09211734  0.42748896    -0.25700
C2161       C  0.86067584  0.07487740  0.43009477    -0.15000
C2162       C  0.86736804  0.04740082  0.40361017     0.37400
N2163       N  0.89911358  0.02509351  0.40642384    -0.89200
H2164       H  0.85544605  0.02869736  0.34933985     0.18500
H2165       H  0.81530164  0.10984891  0.44819631     0.18500
N2166       N  0.77057443  0.11008137  0.39463228    -0.88200
H2167       H  0.90444082  0.01183842  0.38176909     0.35900
H2168       H  0.89397395  0.00525451  0.42627935     0.41000
H2169       H  0.75755852  0.10697498  0.36948534     0.40600
H2170       H  0.77658103  0.13800354  0.39730439     0.35500
C2171       C  0.82688306  0.91798395  0.13133392    -0.26300
C2172       C  0.82489160  0.95506246  0.13823282    -0.14300
C2173       C  0.84251098  0.98028476  0.11424019     0.36300
C2174       C  0.86470792  0.96725570  0.08561498    -0.25700
C2175       C  0.86960177  0.92943895  0.08014123    -0.15000
C2176       C  0.84864325  0.90477723  0.10313753     0.37400
N2177       N  0.85002068  0.86571822  0.09863392    -0.89200
H2178       H  0.81319849  0.89872448  0.14944139     0.18500
H2179       H  0.87789233  0.98697372  0.06778278     0.18500
N2180       N  0.83815976  0.01926025  0.11789589    -0.88200
H2181       H  0.85895068  0.85428915  0.12321644     0.35900
H2182       H  0.82353771  0.85600951  0.09482777     0.41000
H2183       H  0.82039829  0.02585915  0.13922143     0.40600
H2184       H  0.82525547  0.02824296  0.09415082     0.35500
C2185       C  0.85727665  0.94706626  0.37140226    -0.26300
C2186       C  0.86987910  0.95198192  0.33558858    -0.14300
C2187       C  0.90783163  0.95495405  0.32956374     0.36300
C2188       C  0.93164516  0.94868328  0.35865823    -0.25700
C2189       C  0.91941982  0.93412465  0.39202806    -0.15000
C2190       C  0.88148208  0.93925159  0.39976655     0.37400
N2191       N  0.86703793  0.93448296  0.43591636    -0.89200
H2192       H  0.82846796  0.94910068  0.37758114     0.18500
H2193       H  0.95940925  0.95632073  0.35496326     0.18500
N2194       N  0.92230104  0.96462153  0.29419045    -0.88200
H2195       H  0.85389282  0.95866109  0.44359727     0.35900
H2196       H  0.84718975  0.91385477  0.43476097     0.41000
H2197       H  0.91594001  0.94320152  0.27629338     0.40600
H2198       H  0.95071896  0.96630789  0.29483656     0.35500
C2199       C  0.85564559  0.11310217  0.15514846    -0.26300
C2200       C  0.86718210  0.08500959  0.17766478    -0.14300
C2201       C  0.89909918  0.06581199  0.16763034     0.36300
C2202       C  0.91799209  0.07474946  0.13505640    -0.25700
C2203       C  0.90596132  0.10231321  0.11067343    -0.15000
C2204       C  0.87468587  0.12296766  0.12335219     0.37400
N2205       N  0.86170372  0.15513449  0.10532687    -0.89200
H2206       H  0.83168044  0.12865357  0.16275004     0.18500
H2207       H  0.94322605  0.06062714  0.13035825     0.18500
N2208       N  0.91259729  0.03681048  0.19021948    -0.88200
H2209       H  0.86260479  0.17686366  0.12392820     0.35900
H2210       H  0.83418842  0.15101795  0.09921277     0.41000
H2211       H  0.93919530  0.04347388  0.19792988     0.40600
H2212       H  0.91349347  0.01286187  0.17453419     0.35500
C2213       C  0.01716156  0.35435103  0.16650843    -0.26300
C2214       C  0.04634980  0.33486466  0.18322702    -0.14300
C2215       C  0.08109150  0.33875963  0.16786304     0.36300
C2216       C  0.08598366  0.36209182  0.13764440    -0.25700
C2217       C  0.05709762  0.38194854  0.12037791    -0.15000
C2218       C  0.02195568  0.37708916  0.13519448     0.37400
N2219       N  0.99142511  0.39542458  0.11916795    -0.89200
H2220       H  0.98995291  0.35163340  0.17770479     0.18500
H2221       H  0.11331521  0.36443061  0.12677601     0.18500
N2222       N  0.11131960  0.31837981  0.18211193    -0.88200
H2223       H  0.96767757  0.38995731  0.13410417     0.35900
H2224       H  0.98749658  0.38419781  0.09317457     0.41000
H2225       H  0.11747361  0.32916394  0.20784878     0.40600
H2226       H  0.13455398  0.32230530  0.16592910     0.35500
C2227       C  0.93640617  0.18172607  0.10366715    -0.26300
C2228       C  0.95329242  0.14693655  0.09719669    -0.14300
C2229       C  0.98267180  0.13833521  0.12042562     0.36300
C2230       C  0.99023824  0.16050578  0.15097375    -0.25700
C2231       C  0.96890426  0.19156570  0.15996796    -0.15000
C2232       C  0.94345052  0.20335917  0.13453982     0.37400
N2233       N  0.92344871  0.23648335  0.14050331    -0.89200
H2234       H  0.91447950  0.19162357  0.08724328     0.18500
H2235       H  0.01196427  0.15177588  0.16888971     0.18500
N2236       N  0.00393089  0.10607033  0.11444831    -0.88200
H2237       H  0.89573494  0.22999947  0.14176299     0.35900
H2238       H  0.92770278  0.25368679  0.11797630     0.41000
H2239       H  0.00252978  0.08982366  0.13800245     0.40600
H2240       H  0.03104437  0.11415894  0.11078985     0.35500
C2241       C  0.06136293  0.16360502  0.36567701    -0.26300
C2242       C  0.06635666  0.15449177  0.32872004    -0.14300
C2243       C  0.06020099  0.11732229  0.31887340     0.36300
C2244       C  0.05602899  0.09024158  0.34631695    -0.25700
C2245       C  0.06018385  0.09888737  0.38397340    -0.15000
C2246       C  0.05293068  0.13650030  0.39203544     0.37400
N2247       N  0.02307093  0.14572343  0.41579194    -0.89200
H2248       H  0.05808793  0.19219456  0.37300072     0.18500
H2249       H  0.05519011  0.06176075  0.33791788     0.18500
N2250       N  0.05982169  0.10644241  0.28124680    -0.88200
H2251       H  0.02921241  0.16971519  0.43016785     0.35900
H2252       H  0.01723544  0.12480971  0.43430962     0.41000
H2253       H  0.03473600  0.09387481  0.27601046     0.40600
H2254       H  0.08024512  0.08694065  0.27730831     0.35500
C2255       C  0.92584543  0.34368972  0.37605228    -0.26300
C2256       C  0.94185221  0.34530215  0.34102682    -0.14300
C2257       C  0.96248693  0.37714506  0.33227286     0.36300
C2258       C  0.96052245  0.40836040  0.35532990    -0.25700
C2259       C  0.93507924  0.40959911  0.38406796    -0.15000
C2260       C  0.92481697  0.37486869  0.39864115     0.37400
N2261       N  0.91201559  0.37156120  0.43562955    -0.89200
H2262       H  0.91462949  0.31810542  0.38627865     0.18500
H2263       H  0.97516966  0.43315957  0.34795291     0.18500
N2264       N  0.98533316  0.37776300  0.30026567    -0.88200
H2265       H  0.88654541  0.35871131  0.43541908     0.35900
H2266       H  0.92960372  0.35408401  0.44955878     0.41000
H2267       H  0.00602337  0.35858111  0.30423362     0.40600
H2268       H  0.99812980  0.40328859  0.29750205     0.35500
C2269       C  0.96143395  0.11190025  0.36216145    -0.26300
C2270       C  0.94355902  0.14088493  0.34547737    -0.14300
C2271       C  0.90742929  0.14827384  0.35450297     0.36300
C2272       C  0.89228856  0.13103873  0.38458218    -0.25700
C2273       C  0.91320392  0.10796234  0.40789858    -0.15000
C2274       C  0.94649718  0.09472853  0.39305847     0.37400
N2275       N  0.96467510  0.06339834  0.40748686    -0.89200
H2276       H  0.98799697  0.10413152  0.35257706     0.18500
H2277       H  0.86500376  0.13918276  0.39199428     0.18500
N2278       N  0.88630415  0.17476263  0.33493001    -0.88200
H2279       H  0.99124760  0.07130634  0.41285920     0.35900
H2280       H  0.96617911  0.04366280  0.38680986     0.41000
H2281       H  0.88578142  0.16708708  0.30738249     0.40600
H2282       H  0.89891682  0.20042113  0.33690001     0.35500
C2283       C  0.09820310  0.33000228  0.38569976    -0.26300
C2284       C  0.06147223  0.32166098  0.38816559    -0.14300
C2285       C  0.03986687  0.34081192  0.41375594     0.36300
C2286       C  0.05407869  0.37230054  0.43148806    -0.25700
C2287       C  0.09070531  0.38317657  0.42647449    -0.15000
C2288       C  0.11330251  0.35909581  0.40506466     0.37400
N2289       N  0.15147584  0.36557468  0.40004610    -0.89200
H2290       H  0.11549707  0.31436406  0.36738820     0.18500
H2291       H  0.03639542  0.38802744  0.44916716     0.18500
N2292       N  0.00367604  0.32838696  0.42148800    -0.88200
H2293       H  0.16512174  0.34175222  0.40784885     0.35900
H2294       H  0.15675082  0.36904208  0.37214570     0.41000
H2295       H  0.98936549  0.33021115  0.39714278     0.40600
H2296       H  0.99115224  0.34582122  0.44031540     0.35500
C2297       C  0.85526194  0.59649780  0.14400218    -0.26300
C2298       C  0.87992412  0.56975434  0.12957465    -0.14300
C2299       C  0.87674631  0.53383437  0.14312252     0.36300
C2300       C  0.85016912  0.52600904  0.16999850    -0.25700
C2301       C  0.82545530  0.55301986  0.18303906    -0.15000
C2302       C  0.82896659  0.58885764  0.17009471     0.37400
N2303       N  0.80520174  0.61789824  0.18120982    -0.89200
H2304       H  0.85477566  0.62399605  0.13313250     0.18500
H2305       H  0.84804821  0.49799630  0.17972468     0.18500
N2306       N  0.89939610  0.50509780  0.12943800    -0.88200
H2307       H  0.80749502  0.62145732  0.20947803     0.35900
H2308       H  0.77841807  0.61077133  0.17465980     0.41000
H2309       H  0.88254211  0.48480572  0.11837020     0.40600
H2310       H  0.91331498  0.49359615  0.15151576     0.35500
C2311       C  0.84810773  0.50183233  0.34290403    -0.26300
C2312       C  0.84500981  0.47961655  0.31131273    -0.14300
C2313       C  0.87649278  0.46196232  0.29913148     0.36300
C2314       C  0.90630495  0.45882815  0.32307365    -0.25700
C2315       C  0.90392564  0.47076753  0.36029334    -0.15000
C2316       C  0.87823515  0.49892138  0.36652730     0.37400
N2317       N  0.87970530  0.52008207  0.39961740    -0.89200
H2318       H  0.82589574  0.51965662  0.35072689     0.18500
H2319       H  0.92859061  0.44364851  0.31214142     0.18500
N2320       N  0.87737857  0.44444424  0.26409768    -0.88200
H2321       H  0.85791173  0.53838516  0.40089841     0.35900
H2322       H  0.90339265  0.53605070  0.39842996     0.41000
H2323       H  0.88236445  0.41652372  0.26815275     0.40600
H2324       H  0.89923535  0.45543648  0.24924776     0.35500
C2325       C  0.63938477  0.45714628  0.14658689    -0.26300
C2326       C  0.67650103  0.44804467  0.14479501    -0.14300
C2327       C  0.69207924  0.44453971  0.10975219     0.36300
C2328       C  0.66912107  0.44309321  0.07858438    -0.25700
C2329       C  0.63025287  0.44348677  0.08120269    -0.15000
C2330       C  0.61682098  0.45676744  0.11554091     0.37400
N2331       N  0.57905710  0.46501421  0.12060913    -0.89200
H2332       H  0.62700420  0.46336961  0.17276378     0.18500
H2333       H  0.68295075  0.43978610  0.05323610     0.18500
N2334       N  0.73074472  0.43991063  0.10587767    -0.88200
H2335       H  0.57701422  0.49189737  0.13024657     0.35900
H2336       H  0.56842555  0.44758778  0.14077453     0.41000
H2337       H  0.74309726  0.46471100  0.11317588     0.40600
H2338       H  0.73781838  0.43521243  0.07855454     0.35500
C2339       C  0.66501470  0.56266431  0.42164366    -0.26300
C2340       C  0.62879177  0.57364688  0.41825644    -0.14300
C2341       C  0.61579705  0.57580838  0.38131938     0.36300
C2342       C  0.64043930  0.57829368  0.35162390    -0.25700
C2343       C  0.67787494  0.57331922  0.35675523    -0.15000
C2344       C  0.68998033  0.56522823  0.39252570     0.37400
N2345       N  0.72748181  0.55668085  0.39887588    -0.89200
H2346       H  0.67378439  0.55042256  0.44660763     0.18500
H2347       H  0.62976508  0.58004084  0.32407020     0.18500
N2348       N  0.57751834  0.57608960  0.37396896    -0.88200
H2349       H  0.72886994  0.53013460  0.40962324     0.35900
H2350       H  0.73736928  0.57484152  0.41863789     0.41000
H2351       H  0.57155555  0.55319614  0.35784561     0.40600
H2352       H  0.57166640  0.59939519  0.35841701     0.35500
C2353       C  0.63658801  0.54917199  0.13529873    -0.26300
C2354       C  0.62911562  0.55532529  0.17233871    -0.14300
C2355       C  0.59505117  0.56917156  0.18242774     0.36300
C2356       C  0.57099477  0.58089847  0.15553026    -0.25700
C2357       C  0.58029984  0.58089485  0.11777016    -0.15000
C2358       C  0.61192135  0.56028672  0.10813984     0.37400
N2359       N  0.62005444  0.55241753  0.07056815    -0.89200
H2360       H  0.66154018  0.53548453  0.12737791     0.18500
H2361       H  0.54550798  0.58949704  0.16614663     0.18500
N2362       N  0.58444404  0.57271447  0.22007404    -0.88200
H2363       H  0.64558696  0.56363188  0.06429978     0.35900
H2364       H  0.62178760  0.52397634  0.06762657     0.41000
H2365       H  0.60380984  0.58887942  0.23348530     0.40600
H2366       H  0.58400186  0.54670250  0.23208772     0.35500
C2367       C  0.63133924  0.39920677  0.34602351    -0.26300
C2368       C  0.64368704  0.43475329  0.34743184    -0.14300
C2369       C  0.62807322  0.45959204  0.37211667     0.36300
C2370       C  0.59955313  0.44892359  0.39490099    -0.25700
C2371       C  0.58545654  0.41308575  0.39349740    -0.15000
C2372       C  0.60249863  0.38794341  0.36807450     0.37400
N2373       N  0.59028497  0.35098105  0.36309632    -0.89200
H2374       H  0.64296194  0.38033565  0.32628543     0.18500
H2375       H  0.58968029  0.46889979  0.41421538     0.18500
N2376       N  0.64085708  0.49625700  0.37417057    -0.88200
H2377       H  0.61220341  0.33362795  0.36845898     0.35900
H2378       H  0.58444899  0.34739069  0.33537315     0.41000
H2379       H  0.63783725  0.50759170  0.34814610     0.40600
H2380       H  0.66854179  0.49510107  0.38043690     0.35500
C2381       C  0.37746177  0.37805931  0.50705701    -0.26300
C2382       C  0.36414567  0.40442701  0.53160994    -0.14300
C2383       C  0.32549700  0.40436282  0.53615418     0.36300
C2384       C  0.30665641  0.37089090  0.53507622    -0.25700
C2385       C  0.32390278  0.33969451  0.52143861    -0.15000
C2386       C  0.35753767  0.34510514  0.50202582     0.37400
N2387       N  0.37405303  0.31593384  0.48175298    -0.89200
H2388       H  0.40572651  0.37908530  0.49850482     0.18500
H2389       H  0.27842355  0.36958482  0.54369421     0.18500
N2390       N  0.30497095  0.43745464  0.54036722    -0.88200
H2391       H  0.39909573  0.30983305  0.49378311     0.35900
H2392       H  0.37909814  0.32539067  0.45519076     0.41000
H2393       H  0.32175127  0.46027681  0.53649445     0.40600
H2394       H  0.29367392  0.43809377  0.56663852     0.35500
C2395       C  0.15855898  0.34638308  0.49540209    -0.26300
C2396       C  0.19196267  0.34785073  0.47629736    -0.14300
C2397       C  0.20230630  0.38192792  0.46181223     0.36300
C2398       C  0.17632596  0.41021764  0.45973172    -0.25700
C2399       C  0.13854075  0.40462475  0.46846884    -0.15000
C2400       C  0.13186418  0.37362787  0.49183992     0.37400
N2401       N  0.09728099  0.36590264  0.50883913    -0.89200
H2402       H  0.15133093  0.32193747  0.51074810     0.18500
H2403       H  0.18651495  0.43412334  0.44664921     0.18500
N2404       N  0.23766185  0.38789254  0.44618070    -0.88200
H2405       H  0.08707977  0.34155759  0.49765545     0.35900
H2406       H  0.07809917  0.38583445  0.50355668     0.41000
H2407       H  0.24132485  0.36946042  0.42461155     0.40600
H2408       H  0.25714691  0.38262876  0.46625628     0.35500
C2409       C  0.36431145  0.17628403  0.39936982    -0.26300
C2410       C  0.36443727  0.18957282  0.43463134    -0.14300
C2411       C  0.39357259  0.18013784  0.45816992     0.36300
C2412       C  0.41807851  0.15212066  0.44801066    -0.25700
C2413       C  0.41588835  0.13543220  0.41345362    -0.15000
C2414       C  0.38968096  0.15037179  0.38811391     0.37400
N2415       N  0.38635264  0.13726754  0.35131845    -0.89200
H2416       H  0.34245205  0.18382486  0.38099765     0.18500
H2417       H  0.43949874  0.14429858  0.46663176     0.18500
N2418       N  0.39936666  0.19921460  0.49199642    -0.88200
H2419       H  0.38738005  0.15998283  0.33392116     0.35900
H2420       H  0.36024917  0.12629280  0.34807273     0.41000
H2421       H  0.38060774  0.22046680  0.49507782     0.40600
H2422       H  0.42499411  0.21173241  0.49051385     0.35500
C2423       C  0.11272237  0.19338701  0.55556876    -0.26300
C2424       C  0.14735538  0.19222585  0.57210154    -0.14300
C2425       C  0.15433827  0.16389538  0.59644278     0.36300
C2426       C  0.12820328  0.13640987  0.60178219    -0.25700
C2427       C  0.09388233  0.13444042  0.58291319    -0.15000
C2428       C  0.08571695  0.16624108  0.56147380     0.37400
N2429       N  0.05091590  0.17316817  0.54531865    -0.89200
H2430       H  0.10669077  0.21560670  0.53684445     0.18500
H2431       H  0.13571149  0.11629280  0.62194005     0.18500
N2432       N  0.18872748  0.16167881  0.61469334    -0.88200
H2433       H  0.04068680  0.19723096  0.55692454     0.35900
H2434       H  0.03220443  0.15287863  0.55125867     0.41000
H2435       H  0.20085802  0.13679245  0.60755073     0.40600
H2436       H  0.18382880  0.16132723  0.64289694     0.35500
C2437       C  0.33843991  0.07688986  0.58145828    -0.26300
C2438       C  0.37524488  0.08592480  0.57298174    -0.14300
C2439       C  0.38024913  0.11858471  0.55132638     0.36300
C2440       C  0.35262701  0.14476566  0.55012042    -0.25700
C2441       C  0.31846027  0.13828747  0.56515242    -0.15000
C2442       C  0.31033217  0.10263228  0.57785724     0.37400
N2443       N  0.27454781  0.09267402  0.59022821    -0.89200
H2444       H  0.33073627  0.05180534  0.59454864     0.18500
H2445       H  0.35773236  0.17071291  0.53688586     0.18500
N2446       N  0.41362352  0.12821652  0.53294335    -0.88200
H2447       H  0.25656585  0.09435777  0.56823563     0.35900
H2448       H  0.26646357  0.11132537  0.61035471     0.41000
H2449       H  0.43343075  0.10817745  0.53403270     0.40600
H2450       H  0.42423090  0.15198473  0.54487362     0.35500
C2451       C  0.13481142  0.15078075  0.45148057    -0.26300
C2452       C  0.17016800  0.13818092  0.44497680    -0.14300
C2453       C  0.17627204  0.10001781  0.44312967     0.36300
C2454       C  0.14608032  0.07641887  0.44178626    -0.25700
C2455       C  0.11086616  0.09112949  0.43629542    -0.15000
C2456       C  0.10542809  0.12654502  0.45024403     0.37400
N2457       N  0.07287273  0.13503707  0.46981865    -0.89200
H2458       H  0.13037746  0.17881996  0.46021246     0.18500
H2459       H  0.15063071  0.04737583  0.43766655     0.18500
N2460       N  0.21255935  0.08566388  0.44016217    -0.88200
H2461       H  0.07318313  0.16243093  0.47818259     0.35900
H2462       H  0.07311950  0.11915480  0.49351598     0.41000
H2463       H  0.22353657  0.09503347  0.41539400     0.40600
H2464       H  0.21197654  0.05703702  0.43858599     0.35500
C2465       C  0.46869030  0.18813896  0.34924564    -0.26300
C2466       C  0.45388240  0.17834462  0.31506319    -0.14300
C2467       C  0.45349565  0.14060260  0.30617634     0.36300
C2468       C  0.46155777  0.11431466  0.33292112    -0.25700
C2469       C  0.46551824  0.12387045  0.37016513    -0.15000
C2470       C  0.47647194  0.16102793  0.37612040     0.37400
N2471       N  0.49021425  0.17164806  0.41129718    -0.89200
H2472       H  0.47307656  0.21683998  0.35551934     0.18500
H2473       H  0.46060860  0.08657160  0.32374166     0.18500
N2474       N  0.44167298  0.12815661  0.27097001    -0.88200
H2475       H  0.49558528  0.19982349  0.41188597     0.35900
H2476       H  0.51514252  0.15844589  0.41489393     0.41000
H2477       H  0.41832431  0.11202800  0.27468315     0.40600
H2478       H  0.46191077  0.11139979  0.26000990     0.35500
C2479       C  0.50419225  0.32548649  0.36969908    -0.26300
C2480       C  0.51329555  0.33800040  0.33429070    -0.14300
C2481       C  0.51663499  0.37617547  0.32891248     0.36300
C2482       C  0.52049850  0.39908401  0.35956153    -0.25700
C2483       C  0.52462505  0.38358122  0.39486411    -0.15000
C2484       C  0.50794964  0.34913858  0.40010502     0.37400
N2485       N  0.49527505  0.33836564  0.43570507    -0.89200
H2486       H  0.49445728  0.29767292  0.37369792     0.18500
H2487       H  0.52701701  0.42777685  0.35521802     0.18500
N2488       N  0.51754928  0.39120217  0.29251814    -0.88200
H2489       H  0.50555662  0.31248880  0.44210958     0.35900
H2490       H  0.46699983  0.33542265  0.43421742     0.41000
H2491       H  0.54102607  0.38146742  0.27957657     0.40600
H2492       H  0.51995406  0.41976834  0.29341742     0.35500
C2493       C  0.56001738  0.17545532  0.14716759    -0.26300
C2494       C  0.54905744  0.16409302  0.18236802    -0.14300
C2495       C  0.53628335  0.12718941  0.18593279     0.36300
C2496       C  0.54099082  0.10188942  0.15664532    -0.25700
C2497       C  0.56103552  0.11184651  0.12501875    -0.15000
C2498       C  0.56354087  0.15017022  0.11793385     0.37400
N2499       N  0.57092394  0.16314737  0.08151541    -0.89200
H2500       H  0.56516789  0.20429586  0.14214342     0.18500
H2501       H  0.53506322  0.07313026  0.16130398     0.18500
N2502       N  0.52069484  0.11466222  0.21980606    -0.88200
H2503       H  0.57204887  0.19179775  0.08100045     0.35900
H2504       H  0.54894716  0.15538344  0.06513809     0.41000
H2505       H  0.54121425  0.11533552  0.23952741     0.40600
H2506       H  0.51229527  0.08731152  0.21767140     0.35500
C2507       C  0.44390917  0.40261638  0.17859545    -0.26300
C2508       C  0.41867385  0.37428395  0.18627648    -0.14300
C2509       C  0.38784497  0.37151552  0.16452281     0.36300
C2510       C  0.38524428  0.39288202  0.13326773    -0.25700
C2511       C  0.41175643  0.41960060  0.12218243    -0.15000
C2512       C  0.44008052  0.42612095  0.14790958     0.37400
N2513       N  0.46503634  0.45598636  0.14386537    -0.89200
H2514       H  0.46816815  0.40498075  0.19523899     0.18500
H2515       H  0.36177336  0.38728426  0.11672347     0.18500
N2516       N  0.36005602  0.34465079  0.17164067    -0.88200
H2517       H  0.49139903  0.44530369  0.14262577     0.35900
H2518       H  0.46318082  0.47244309  0.16719586     0.41000
H2519       H  0.35022058  0.34879722  0.19819427     0.40600
H2520       H  0.37139288  0.31845122  0.17018140     0.35500
C2521       C  0.59384283  0.34989527  0.13796298    -0.26300
C2522       C  0.55683549  0.34331333  0.13885877    -0.14300
C2523       C  0.53405777  0.36034723  0.11289947     0.36300
C2524       C  0.54860759  0.38583517  0.08786815    -0.25700
C2525       C  0.58635442  0.39282361  0.08634174    -0.15000
C2526       C  0.60905940  0.37230780  0.11109275     0.37400
N2527       N  0.64793931  0.37205533  0.10773886    -0.89200
H2528       H  0.61157831  0.33515034  0.15646548     0.18500
H2529       H  0.53031280  0.39819478  0.06838402     0.18500
N2530       N  0.49618642  0.35107870  0.11122439    -0.88200
H2531       H  0.65614746  0.34519394  0.10235943     0.35900
H2532       H  0.65885130  0.37873830  0.13322028     0.41000
H2533       H  0.49093005  0.34023010  0.08529911     0.40600
H2534       H  0.48130994  0.37524331  0.11369826     0.35500
C2535       C  0.41629429  0.17004518  0.06282016    -0.26300
C2536       C  0.42306840  0.13283813  0.07190158    -0.14300
C2537       C  0.45310292  0.12504722  0.09491372     0.36300
C2538       C  0.46985443  0.15350561  0.11319143    -0.25700
C2539       C  0.45597059  0.18896152  0.11105678    -0.15000
C2540       C  0.43246095  0.19823224  0.08264333     0.37400
N2541       N  0.42274359  0.23559238  0.07572784    -0.89200
H2542       H  0.39625710  0.17831046  0.04323346     0.18500
H2543       H  0.48929144  0.14664634  0.13387690     0.18500
N2544       N  0.46243101  0.08807877  0.10454460    -0.88200
H2545       H  0.39453721  0.23801603  0.07872903     0.35900
H2546       H  0.42938828  0.24161838  0.04852128     0.41000
H2547       H  0.45891576  0.08475536  0.13276920     0.40600
H2548       H  0.48991075  0.08418841  0.09856533     0.35500
C2549       C  0.36143593  0.53469565  0.33202108    -0.26300
C2550       C  0.33664938  0.56326711  0.32451957    -0.14300
C2551       C  0.33482486  0.59275415  0.34851430     0.36300
C2552       C  0.35820983  0.59429096  0.37825618    -0.25700
C2553       C  0.38604610  0.56789377  0.38462550    -0.15000
C2554       C  0.38634669  0.53691698  0.36147152     0.37400
N2555       N  0.41045040  0.50704693  0.36853500    -0.89200
H2556       H  0.36063084  0.50998309  0.31559242     0.18500
H2557       H  0.35491919  0.61778585  0.39581801     0.18500
N2558       N  0.30795353  0.62072531  0.34364459    -0.88200
H2559       H  0.42526662  0.50172826  0.34468419     0.35900
H2560       H  0.39454758  0.48382975  0.37406850     0.41000
H2561       H  0.32145354  0.64593622  0.34131772     0.40600
H2562       H  0.29165312  0.62153209  0.36715622     0.35500
C2563       C  0.37961042  0.49101972  0.13393758    -0.26300
C2564       C  0.36879132  0.46610823  0.10631927    -0.14300
C2565       C  0.33271341  0.45061233  0.11088878     0.36300
C2566       C  0.31387795  0.45397281  0.14396812    -0.25700
C2567       C  0.32764104  0.47395006  0.17298884    -0.15000
C2568       C  0.36037362  0.49421026  0.16738447     0.37400
N2569       N  0.37564479  0.51723973  0.19539608    -0.89200
H2570       H  0.40602478  0.50419071  0.13180643     0.18500
H2571       H  0.28711024  0.44143440  0.14644523     0.18500
N2572       N  0.31466075  0.42968489  0.08329459    -0.88200
H2573       H  0.40143366  0.50698486  0.20161933     0.35900
H2574       H  0.36067472  0.51545865  0.21966886     0.41000
H2575       H  0.30776606  0.40382769  0.09368800     0.40600
H2576       H  0.29036674  0.44294588  0.07668981     0.35500
C2577       C  0.17494501  0.54962949  0.11817722    -0.26300
C2578       C  0.18631866  0.57746081  0.14277605    -0.14300
C2579       C  0.16958184  0.61161553  0.14084017     0.36300
C2580       C  0.14057628  0.61653647  0.11721663    -0.25700
C2581       C  0.12724405  0.58871108  0.09316016    -0.15000
C2582       C  0.14610590  0.55516732  0.09302455     0.37400
N2583       N  0.13572466  0.52648017  0.06853746    -0.89200
H2584       H  0.18691596  0.52260266  0.12023885     0.18500
H2585       H  0.12640812  0.64222543  0.11998217     0.18500
N2586       N  0.17918898  0.64094621  0.16511375    -0.88200
H2587       H  0.12822511  0.50370066  0.08420342     0.35900
H2588       H  0.15851033  0.51943222  0.05287149     0.41000
H2589       H  0.20692172  0.64660817  0.16170112     0.40600
H2590       H  0.17472351  0.63247411  0.19209869     0.35500
C2591       C  0.17437602  0.47316223  0.38146429    -0.26300
C2592       C  0.17162304  0.45227335  0.34884325    -0.14300
C2593       C  0.13802640  0.43487594  0.34254407     0.36300
C2594       C  0.11273336  0.43138648  0.37158580    -0.25700
C2595       C  0.12191623  0.44192030  0.40805529    -0.15000
C2596       C  0.14826045  0.47031904  0.40993281     0.37400
N2597       N  0.15091028  0.49467894  0.44080349    -0.89200
H2598       H  0.19734547  0.49141269  0.38536682     0.18500
H2599       H  0.08781964  0.41642512  0.36614290     0.18500
N2600       N  0.12982909  0.41957725  0.30746928    -0.88200
H2601       H  0.17673795  0.49280858  0.45247754     0.35900
H2602       H  0.13189853  0.48822798  0.46102681     0.41000
H2603       H  0.10601460  0.43188624  0.29795595     0.40600
H2604       H  0.12457836  0.39157816  0.31091004     0.35500
C2605       C  0.10754372  0.57169912  0.40001564    -0.26300
C2606       C  0.07694336  0.59076225  0.38619037    -0.14300
C2607       C  0.07229886  0.59086739  0.34752061     0.36300
C2608       C  0.10039007  0.57810161  0.32519968    -0.25700
C2609       C  0.13391928  0.56768733  0.33993906    -0.15000
C2610       C  0.13791559  0.56576803  0.37807823     0.37400
N2611       N  0.17295904  0.56032783  0.39463190    -0.89200
H2612       H  0.11077077  0.56883917  0.42936686     0.18500
H2613       H  0.09640703  0.57840518  0.29582722     0.18500
N2614       N  0.04065086  0.60444108  0.32985304    -0.88200
H2615       H  0.17100455  0.56120787  0.42314996     0.35900
H2616       H  0.18925099  0.58283526  0.38747266     0.41000
H2617       H  0.04853712  0.62557505  0.31209008     0.40600
H2618       H  0.02938615  0.58330651  0.31417263     0.35500
C2619       C  0.10487737  0.46458001  0.17003983    -0.26300
C2620       C  0.14198527  0.45644505  0.16884053    -0.14300
C2621       C  0.15654196  0.44176315  0.13658780     0.36300
C2622       C  0.13341127  0.43130144  0.10829018    -0.25700
C2623       C  0.09487188  0.43452594  0.11044495    -0.15000
C2624       C  0.08130756  0.45377824  0.14193648     0.37400
N2625       N  0.04309331  0.45833058  0.14833398    -0.89200
H2626       H  0.09333948  0.47743466  0.19413790     0.18500
H2627       H  0.14738503  0.41679880  0.08745168     0.18500
N2628       N  0.19492698  0.43565941  0.13269380    -0.88200
H2629       H  0.03801483  0.48633625  0.15164610     0.35900
H2630       H  0.03616312  0.44514332  0.17283713     0.41000
H2631       H  0.20409093  0.44997282  0.10959317     0.40600
H2632       H  0.19916051  0.40767617  0.12822716     0.35500
C2633       C  0.83056464  0.89734103  0.02599078    -0.26300
C2634       C  0.86919928  0.89502398  0.02131073    -0.14300
C2635       C  0.87955264  0.86974798  0.99415274     0.36300
C2636       C  0.85754193  0.83813127  0.98929183    -0.25700
C2637       C  0.82394352  0.83381310  0.00827059    -0.15000
C2638       C  0.80873365  0.86577939  0.02323977     0.37400
N2639       N  0.77210917  0.86691593  0.03682193    -0.89200
H2640       H  0.81804969  0.92135619  0.03794143     0.18500
H2641       H  0.86737004  0.81657572  0.97150017     0.18500
N2642       N  0.91057505  0.87639173  0.97081868    -0.88200
H2643       H  0.76963898  0.84854324  0.05863832     0.35900
H2644       H  0.75463326  0.85828768  0.01607084     0.41000
H2645       H  0.93439318  0.87732816  0.98616891     0.40600
H2646       H  0.91361463  0.85502375  0.95201275     0.35500
C2647       C  0.65322281  0.83970672  0.98623070    -0.26300
C2648       C  0.68703079  0.84429734  0.96812353    -0.14300
C2649       C  0.69955030  0.88043279  0.96359260     0.36300
C2650       C  0.67550393  0.90994155  0.97015999    -0.25700
C2651       C  0.63746755  0.90444141  0.97685901    -0.15000
C2652       C  0.62912397  0.86923124  0.99198729     0.37400
N2653       N  0.59472337  0.86139907  0.00920109    -0.89200
H2654       H  0.64427498  0.81250549  0.99427490     0.18500
H2655       H  0.68742735  0.93646568  0.96719593     0.18500
N2656       N  0.73538069  0.88754864  0.94962012    -0.88200
H2657       H  0.58050346  0.84284621  0.99273215     0.35900
H2658       H  0.57900957  0.88500137  0.01146994     0.41000
H2659       H  0.74886006  0.90467931  0.96810964     0.40600
H2660       H  0.73279136  0.90193024  0.92500497     0.35500
C2661       C  0.64831463  0.67003316  0.07948956    -0.26300
C2662       C  0.64933197  0.67793893  0.04226905    -0.14300
C2663       C  0.62366401  0.65981271  0.01904562     0.36300
C2664       C  0.60021793  0.63266559  0.03322853    -0.25700
C2665       C  0.59632129  0.62713476  0.07102368    -0.15000
C2666       C  0.62155092  0.64660797  0.09424801     0.37400
N2667       N  0.61933243  0.64401473  0.13332812    -0.89200
H2668       H  0.66738614  0.68342719  0.09771387     0.18500
H2669       H  0.58298582  0.61865569  0.01419035     0.18500
N2670       N  0.62048766  0.66941646  0.98096525    -0.88200
H2671       H  0.64419095  0.63410909  0.14295573     0.35900
H2672       H  0.61576992  0.67033610  0.14400620     0.41000
H2673       H  0.60975186  0.69590185  0.97976365     0.40600
H2674       H  0.60174541  0.65253876  0.96754857     0.35500
C2675       C  0.87598441  0.62729398  0.94304669    -0.26300
C2676       C  0.91068642  0.64467443  0.94294324    -0.14300
C2677       C  0.90864225  0.68365015  0.94689797     0.36300
C2678       C  0.87753895  0.70278267  0.93456928    -0.25700
C2679       C  0.84636794  0.68409683  0.92243425    -0.15000
C2680       C  0.84524977  0.64547339  0.92842348     0.37400
N2681       N  0.81370207  0.62429779  0.91833139    -0.89200
H2682       H  0.87488641  0.59767981  0.94495563     0.18500
H2683       H  0.87730947  0.73244266  0.93620466     0.18500
N2684       N  0.93320698  0.70278882  0.97065860    -0.88200
H2685       H  0.81697056  0.59669131  0.92527320     0.35900
H2686       H  0.81161414  0.62520373  0.88982852     0.41000
H2687       H  0.91901024  0.71104225  0.99400380     0.40600
H2688       H  0.94084261  0.72730528  0.95781575     0.35500
C2689       C  0.62849058  0.57626686  0.92823961    -0.26300
C2690       C  0.61186973  0.58059074  0.89382979    -0.14300
C2691       C  0.62714540  0.60754660  0.86944963     0.36300
C2692       C  0.65363450  0.63170332  0.88153195    -0.25700
C2693       C  0.66789548  0.62882633  0.91627543    -0.15000
C2694       C  0.65730295  0.59922609  0.93917183     0.37400
N2695       N  0.67575241  0.59232309  0.97312936    -0.89200
H2696       H  0.61941093  0.55487651  0.94668747     0.18500
H2697       H  0.66310772  0.65321145  0.86324667     0.18500
N2698       N  0.61457964  0.61253424  0.83279473    -0.88200
H2699       H  0.66455634  0.56948104  0.98643584     0.35900
H2700       H  0.67172524  0.61463906  0.99042382     0.41000
H2701       H  0.63706814  0.60970527  0.81543242     0.40600
H2702       H  0.60622338  0.63968542  0.82982389     0.35500
C2703       C  0.86906539  0.64821761  0.02738652    -0.26300
C2704       C  0.83204451  0.64327119  0.03433703    -0.14300
C2705       C  0.81971310  0.61073745  0.05053235     0.36300
C2706       C  0.84532944  0.58716827  0.06560031    -0.25700
C2707       C  0.88224344  0.59843997  0.06844527    -0.15000
C2708       C  0.89456236  0.62416985  0.04235947     0.37400
N2709       N  0.93266057  0.62977580  0.03602162    -0.89200
H2710       H  0.87782218  0.67143663  0.01158265     0.18500
H2711       H  0.83570529  0.56232183  0.07874162     0.18500
N2712       N  0.78143525  0.60238486  0.05237671    -0.88200
H2713       H  0.93930967  0.65715255  0.04131675     0.35900
H2714       H  0.93774127  0.62532151  0.00836251     0.41000
H2715       H  0.76915276  0.62219003  0.06895006     0.40600
H2716       H  0.77706968  0.57711902  0.06525259     0.35500
C2717       C  0.32589059  0.84893719  0.43025561    -0.26300
C2718       C  0.31722340  0.84714837  0.46696936    -0.14300
C2719       C  0.33445669  0.87184737  0.49178123     0.36300
C2720       C  0.36164180  0.89633045  0.47902393    -0.25700
C2721       C  0.37199216  0.89689144  0.44197386    -0.15000
C2722       C  0.35302311  0.87242758  0.41753050     0.37400
N2723       N  0.36290310  0.86911385  0.37969962    -0.89200
H2724       H  0.31370411  0.82951932  0.41139317     0.18500
H2725       H  0.37474526  0.91466838  0.49820742     0.18500
N2726       N  0.32529907  0.87253967  0.53007066    -0.88200
H2727       H  0.33918431  0.87109566  0.36420917     0.35900
H2728       H  0.37241436  0.84249192  0.37541068     0.41000
H2729       H  0.30346064  0.85502631  0.53585436     0.40600
H2730       H  0.31602235  0.89892128  0.53614059     0.35500
C2731       C  0.10573832  0.84613568  0.57867089    -0.26300
C2732       C  0.10536782  0.87967786  0.55810395    -0.14300
C2733       C  0.13441505  0.88411471  0.53289199     0.36300
C2734       C  0.16378673  0.85898743  0.53249480    -0.25700
C2735       C  0.16562093  0.82868668  0.55673387    -0.15000
C2736       C  0.13538494  0.82178526  0.57912377     0.37400
N2737       N  0.13438690  0.78962761  0.60195006    -0.89200
H2738       H  0.08459760  0.84023836  0.59830984     0.18500
H2739       H  0.18554374  0.86330025  0.51281771     0.18500
N2740       N  0.13412888  0.91359078  0.50702928    -0.88200
H2741       H  0.10941378  0.78738747  0.61562433     0.35900
H2742       H  0.15415550  0.79299568  0.62217611     0.41000
H2743       H  0.13271266  0.90208452  0.48088986     0.40600
H2744       H  0.15904926  0.92743247  0.50853655     0.35500
C2745       C  0.14420682  0.67859502  0.41675649    -0.26300
C2746       C  0.15037195  0.68363350  0.45353286    -0.14300
C2747       C  0.12574103  0.66800021  0.47932098     0.36300
C2748       C  0.09754142  0.64443089  0.46780187    -0.25700
C2749       C  0.09149211  0.63803544  0.43039974    -0.15000
C2750       C  0.11489198  0.65752005  0.40480895     0.37400
N2751       N  0.10843181  0.65710422  0.36616477    -0.89200
H2752       H  0.16251043  0.69096482  0.39686705     0.18500
H2753       H  0.07956340  0.63285729  0.48822823     0.18500
N2754       N  0.12763835  0.67731580  0.51725749    -0.88200
H2755       H  0.13172932  0.64694868  0.35321590     0.35900
H2756       H  0.10498843  0.68406630  0.35718442     0.41000
H2757       H  0.12437250  0.70568613  0.51955823     0.40600
H2758       H  0.15355685  0.67109000  0.52653083     0.35500
C2759       C  0.34465128  0.65237460  0.57780490    -0.26300
C2760       C  0.35072932  0.69052665  0.57728319    -0.14300
C2761       C  0.38529777  0.70215362  0.56317943     0.36300
C2762       C  0.41257236  0.67621075  0.55501299    -0.25700
C2763       C  0.41022503  0.63983759  0.56711705    -0.15000
C2764       C  0.37337690  0.62721675  0.57112879     0.37400
N2765       N  0.36548173  0.58879604  0.57124655    -0.89200
H2766       H  0.31763281  0.64181844  0.58363580     0.18500
H2767       H  0.43637286  0.68490841  0.53998751     0.18500
N2768       N  0.39402612  0.73993819  0.55659519    -0.88200
H2769       H  0.34717023  0.58351958  0.55009112     0.35900
H2770       H  0.35219338  0.58238796  0.59579138     0.41000
H2771       H  0.38999042  0.75469080  0.58075959     0.40600
H2772       H  0.37731660  0.75034456  0.53607886     0.35500
C2773       C  0.14037242  0.60870929  0.62170942    -0.26300
C2774       C  0.12108808  0.58770220  0.59517042    -0.14300
C2775       C  0.13749145  0.58418899  0.56014665     0.36300
C2776       C  0.16983383  0.60393976  0.55224177    -0.25700
C2777       C  0.18574198  0.62733066  0.57845430    -0.15000
C2778       C  0.17178538  0.62814189  0.61377461     0.37400
N2779       N  0.18870455  0.65006383  0.64152871    -0.89200
H2780       H  0.12926180  0.61279489  0.64873429     0.18500
H2781       H  0.18098142  0.60308671  0.52475574     0.18500
N2782       N  0.12176257  0.56148656  0.53244861    -0.88200
H2783       H  0.19549498  0.63284064  0.66333298     0.35900
H2784       H  0.16962776  0.66905893  0.65101112     0.41000
H2785       H  0.14103709  0.54191216  0.52476011     0.40600
H2786       H  0.11638967  0.57783180  0.50961746     0.35500
C2787       C  0.41782096  0.63283848  0.45636927    -0.26300
C2788       C  0.40267921  0.59996056  0.44302944    -0.14300
C2789       C  0.37007978  0.58727137  0.45981207     0.36300
C2790       C  0.34804007  0.61240497  0.47731696    -0.25700
C2791       C  0.35780114  0.64956621  0.47788559    -0.15000
C2792       C  0.39415883  0.65973026  0.46997280     0.37400
N2793       N  0.40595670  0.69728870  0.47231253    -0.89200
H2794       H  0.44534564  0.64048130  0.44870511     0.18500
H2795       H  0.32179774  0.60314850  0.48748908     0.18500
N2796       N  0.35744566  0.55020496  0.45574792    -0.88200
H2797       H  0.39206586  0.71202858  0.45222144     0.35900
H2798       H  0.43363926  0.69957084  0.46588017     0.41000
H2799       H  0.33199978  0.55061723  0.44303187     0.40600
H2800       H  0.35394019  0.53904140  0.48190880     0.35500
loop_ 
_geom_bond_atom_site_label_1 
_geom_bond_atom_site_label_2 
_geom_bond_distance 
_geom_bond_site_symmetry_2 
_ccdc_geom_bond_type 
Zn1           O5   1.910       .  S
Zn1           O6   1.990       .  S
Zn1          O10   1.934       .  S
Zn1          O17   1.927       .  S
Zn2           O5   1.896       .  S
Zn2           O7   1.981       .  S
Zn2           O9   1.939       .  S
Zn2          O13   1.950       .  S
Zn3           O5   1.910       .  S
Zn3           O8   2.146       .  S
Zn3          O11   2.006       .  S
Zn3          O14   2.165       .  S
Zn4           O5   1.903       .  S
Zn4          O12   1.929       .  S
Zn4          O15   2.074       .  S
Zn4          O16   2.090       .  S
O6           C18   1.269       .  A
O7           C19   1.264       .  A
O8           C20   1.280       .  A
O9           C18   1.271       .  A
O10          C20   1.256       .  A
O11          C19   1.275       .  A
O12          C21   1.264       .  A
O13          C22   1.265       .  A
O14          C21   1.300       .  A
O15          C22   1.283       .  A
O16          C23   1.287       .  A
O17          C23   1.262       .  A
C18        C2791   1.462       .  S
C19        C2777   1.466       .  S
C20        C2760   1.524       .  S
C21        C2735   1.500       .  S
C22        C2746   1.473       .  S
C23        C2718   1.473       .  S
Zn24         O28   1.852       .  S
Zn24         O29   1.909       .  S
Zn24         O33   1.951       .  S
Zn24         O40   1.936       .  S
Zn25         O28   1.915   1_554  S
Zn25         O30   2.146       .  S
Zn25         O32   2.036       .  S
Zn25         O36   2.131       .  S
Zn26         O28   1.888       .  S
Zn26         O31   2.087       .  S
Zn26         O34   1.930       .  S
Zn26         O37   2.137       .  S
Zn27         O28   1.845       .  S
Zn27         O35   1.972       .  S
Zn27         O38   1.894       .  S
Zn27         O39   2.022       .  S
O29          C41   1.261   1_556  A
O30          C42   1.291       .  A
O31          C43   1.282       .  A
O32          C41   1.279       .  A
O33          C43   1.263       .  A
O34          C42   1.256   1_556  A
O35          C44   1.274       .  A
O36          C45   1.289       .  A
O37          C44   1.292       .  A
O38          C45   1.256   1_556  A
O39          C46   1.284       .  A
O40          C46   1.262       .  A
C41        C2704   1.441       .  S
C42        C2637   1.497       .  S
C43        C2679   1.513       .  S
C44        C2648   1.510       .  S
C45        C2662   1.500       .  S
C46        C2693   1.463       .  S
Zn47         O51   1.908       .  S
Zn47         O52   1.922       .  S
Zn47         O56   2.106       .  S
Zn47         O63   2.107       .  S
Zn48         O51   1.883       .  S
Zn48         O53   2.143       .  S
Zn48         O55   2.113       .  S
Zn48         O59   1.991       .  S
Zn49         O51   1.874       .  S
Zn49         O54   1.902       .  S
Zn49         O57   1.931       .  S
Zn49         O60   1.968       .  S
Zn50         O51   1.885       .  S
Zn50         O58   1.936       .  S
Zn50         O61   1.974       .  S
Zn50         O62   1.918       .  S
O52          C64   1.264       .  A
O53          C65   1.284       .  A
O54          C66   1.260       .  A
O55          C64   1.295       .  A
O56          C66   1.288       .  A
O57          C65   1.258       .  A
O58          C67   1.267       .  A
O59          C68   1.268       .  A
O60          C67   1.271       .  A
O61          C68   1.267       .  A
O62          C69   1.261       .  A
O63          C69   1.287       .  A
C64        C2567   1.478       .  S
C65        C2592   1.511       .  S
C66        C2550   1.467       .  S
C67        C2609   1.462       .  S
C68        C2620   1.478       .  S
C69        C2578   1.473       .  S
Zn70         O74   1.887       .  S
Zn70         O75   1.933       .  S
Zn70         O79   1.941       .  S
Zn70         O86   1.943       .  S
Zn71         O74   1.873       .  S
Zn71         O76   1.896       .  S
Zn71         O78   1.945       .  S
Zn71         O82   1.927       .  S
Zn72         O74   1.904       .  S
Zn72         O77   2.096       .  S
Zn72         O80   2.101       .  S
Zn72         O83   1.901       .  S
Zn73         O74   1.906       .  S
Zn73         O81   2.142       .  S
Zn73         O84   2.061       .  S
Zn73         O85   2.143       .  S
O75          C87   1.266       .  A
O76          C88   1.261       .  A
O77          C89   1.279       .  A
O78          C87   1.263       .  A
O79          C89   1.264       .  A
O80          C88   1.289       .  A
O81          C90   1.296       .  A
O82          C91   1.258       .  A
O83          C90   1.259       .  A
O84          C91   1.277       .  A
O85          C92   1.287       .  A
O86          C92   1.263       .  A
C87        C2539   1.452       .  S
C88        C2508   1.465       .  S
C89        C2466   1.506       .  S
C90        C2480   1.473       .  S
C91        C2522   1.464       .  S
C92        C2494   1.518       .  S
Zn93         O97   1.908       .  S
Zn93         O98   2.090       .  S
Zn93        O102   2.140       .  S
Zn93        O109   2.160       .  S
Zn94         O97   1.838       .  S
Zn94         O99   1.942       .  S
Zn94        O101   1.958       .  S
Zn94        O105   1.973       .  S
Zn95         O97   1.829       .  S
Zn95        O100   1.895       .  S
Zn95        O103   1.965       .  S
Zn95        O106   1.917       .  S
Zn96         O97   1.868       .  S
Zn96        O104   2.148       .  S
Zn96        O107   2.066       .  S
Zn96        O108   1.919       .  S
O98         C110   1.282       .  A
O99         C111   1.265       .  A
O100        C112   1.260       .  A
O101        C110   1.255       .  A
O102        C112   1.294       .  A
O103        C111   1.274       .  A
O104        C113   1.291       .  A
O105        C114   1.273       .  A
O106        C113   1.265       .  A
O107        C114   1.290       .  A
O108        C115   1.254       .  A
O109        C115   1.293       .  A
C110       C2441   1.475       .  S
C111       C2452   1.457       .  S
C112       C2424   1.486       .  S
C113       C2396   1.504       .  S
C114       C2410   1.471       .  S
C115       C2385   1.497       .  S
Zn116       O120   1.894       .  S
Zn116       O121   2.128       .  S
Zn116       O125   1.892       .  S
Zn116       O132   2.091       .  S
Zn117       O120   1.856       .  S
Zn117       O122   1.901       .  S
Zn117       O124   1.919       .  S
Zn117       O128   1.985       .  S
Zn118       O120   1.915       .  S
Zn118       O123   2.090       .  S
Zn118       O126   2.121       .  S
Zn118       O129   2.044       .  S
Zn119       O120   1.882       .  S
Zn119       O127   1.967       .  S
Zn119       O130   1.969       .  S
Zn119       O131   1.968       .  S
O121        C133   1.292       .  A
O122        C134   1.260       .  A
O123        C135   1.288       .  A
O124        C133   1.264       .  A
O125        C135   1.259       .  A
O126        C134   1.286       .  A
O127        C136   1.268       .  A
O128        C137   1.272       .  A
O129        C136   1.277       .  A
O130        C137   1.270       .  A
O131        C138   1.271       .  A
O132        C138   1.283       .  A
C133       C2312   1.499       .  S
C134       C2343   1.482       .  S
C135       C2301   1.481       .  S
C136       C2354   1.465       .  S
C137       C2368   1.448       .  S
C138       C2326   1.507       .  S
Zn139       O143   1.911       .  S
Zn139       O144   1.976   1_455  S
Zn139       O148   1.934       .  S
Zn139       O155   1.886   1_455  S
Zn140       O143   1.918   1_655  S
Zn140       O145   2.036   1_655  S
Zn140       O147   1.975       .  S
Zn140       O151   1.968       .  S
Zn141       O143   1.897       .  S
Zn141       O146   2.114       .  S
Zn141       O149   2.014       .  S
Zn141       O152   2.158       .  S
Zn142       O143   1.900   1_655  S
Zn142       O150   1.935   1_655  S
Zn142       O153   2.083       .  S
Zn142       O154   2.134       .  S
O144        C156   1.268       .  A
O145        C157   1.275       .  A
O146        C158   1.280       .  A
O147        C156   1.273       .  A
O148        C158   1.255       .  A
O149        C157   1.278       .  A
O150        C159   1.264       .  A
O151        C160   1.268       .  A
O152        C159   1.298       .  A
O153        C160   1.284       .  A
O154        C161   1.293       .  A
O155        C161   1.258       .  A
C156       C2270   1.442       .  S
C157       C2284   1.483       .  S
C158       C2242   1.504       .  S
C159       C2214   1.510       .  S
C160       C2256   1.495       .  S
C161       C2231   1.495       .  S
Zn162       O166   1.860   1_565  S
Zn162       O167   2.006       .  S
Zn162       O171   1.933       .  S
Zn162       O178   1.866   1_565  S
Zn163       O166   1.861       .  S
Zn163       O168   1.944   1_545  S
Zn163       O170   1.943   1_545  S
Zn163       O174   1.956       .  S
Zn164       O166   1.883   1_565  S
Zn164       O169   2.113       .  S
Zn164       O172   2.049       .  S
Zn164       O175   1.931   1_565  S
Zn165       O166   1.898       .  S
Zn165       O173   2.135       .  S
Zn165       O176   2.078       .  S
Zn165       O177   2.148       .  S
O167        C179   1.278       .  A
O168        C180   1.268       .  A
O169        C181   1.287       .  A
O170        C179   1.266       .  A
O171        C181   1.264       .  A
O172        C180   1.284       .  A
O173        C182   1.293       .  A
O174        C183   1.262       .  A
O175        C182   1.260       .  A
O176        C183   1.282       .  A
O177        C184   1.292       .  A
O178        C184   1.256       .  A
C179       C2186   1.472       .  S
C180       C2172   1.464       .  S
C181       C2130   1.476       .  S
C182       C2144   1.498       .  S
C183       C2200   1.492       .  S
C184       C2158   1.477       .  S
Zn185       O189   1.823       .  S
Zn185       O190   1.870       .  S
Zn185       O194   1.901       .  S
Zn185       O201   1.969       .  S
Zn186       O189   1.901       .  S
Zn186       O191   2.187       .  S
Zn186       O193   2.158       .  S
Zn186       O197   2.043       .  S
Zn187       O189   1.869       .  S
Zn187       O192   2.137       .  S
Zn187       O195   1.895       .  S
Zn187       O198   2.091       .  S
Zn188       O189   1.859       .  S
Zn188       O196   1.881       .  S
Zn188       O199   1.955       .  S
Zn188       O200   1.952       .  S
O190        C202   1.259       .  A
O191        C203   1.300       .  A
O192        C204   1.292       .  A
O193        C202   1.298       .  A
O194        C204   1.259       .  A
O195        C203   1.258       .  A
O196        C205   1.262       .  A
O197        C206   1.277       .  A
O198        C205   1.291       .  A
O199        C206   1.263       .  A
O200        C207   1.264       .  A
O201        C207   1.270       .  A
C202       C2074   1.485       .  S
C203       C2060   1.492       .  S
C204       C2046   1.499       .  S
C205       C2088   1.462       .  S
C206       C2102   1.469       .  S
C207       C2116   1.459       .  S
C208        C234   1.581       .  S
C208       C2035   1.595       .  S
C208       C2091   1.574       .  S
C208       C2189   1.575       .  S
C209        C235   1.589       .  S
C209       C2018   1.576       .  S
C209       C2161   1.584       .  S
C209       C2273   1.569       .  S
C210        C236   1.608       .  S
C210       C1990   1.597       .  S
C210       C2004   1.590       .  S
C210       C2105   1.599       .  S
C211        C232   1.592       .  S
C211       C1976   1.594       .  S
C211       C2245   1.608       .  S
C211       C2455   1.563       .  S
C212        C231   1.590       .  S
C212       C1951   1.551       .  S
C212       C1965   1.575       .  S
C212       C2427   1.595       .  S
C213        C233   1.593       .  S
C213       C1923   1.591       .  S
C213       C1934   1.546       .  S
C213       C2732   1.581       .  S
Zn214       O218   2.030   1_455  S
Zn214       O219   2.110       .  S
Zn214       O223   2.105   1_545  S
Zn214       O230   2.166   1_445  S
Zn215       O218   2.025   1_455  S
Zn215       O220   2.040       .  S
Zn215       O222   2.127       .  S
Zn215       O226   2.136   1_455  S
Zn216       O218   2.082   1_465  S
Zn216       O221   2.221       .  S
Zn216       O224   2.261   1_565  S
Zn216       O227   2.192   1_455  S
Zn217       O218   2.023   1_565  S
Zn217       O225   2.099       .  S
Zn217       O228   2.161   1_565  S
Zn217       O229   2.140       .  S
O219        C231   1.288       .  A
O220        C232   1.275       .  A
O221        C233   1.300       .  A
O222        C231   1.279       .  A
O223        C233   1.291       .  A
O224        C232   1.299       .  A
O225        C234   1.285       .  A
O226        C235   1.291       .  A
O227        C234   1.297       .  A
O228        C235   1.292       .  A
O229        C236   1.286       .  A
O230        C236   1.286       .  A
Zn237       O241   1.884       .  S
Zn237       O242   1.994       .  S
Zn237       O246   1.956       .  S
Zn237       O253   1.857       .  S
Zn238       O241   1.855       .  S
Zn238       O243   1.916       .  S
Zn238       O245   1.938       .  S
Zn238       O249   1.931       .  S
Zn239       O241   1.892       .  S
Zn239       O244   2.129       .  S
Zn239       O247   2.086       .  S
Zn239       O250   1.888       .  S
Zn240       O241   1.932       .  S
Zn240       O248   2.175       .  S
Zn240       O251   2.079       .  S
Zn240       O252   2.154       .  S
O242        C254   1.276       .  A
O243        C255   1.265       .  A
O244        C256   1.288       .  A
O245        C254   1.261       .  A
O246        C256   1.266       .  A
O247        C255   1.288       .  A
O248        C257   1.298       .  A
O249        C258   1.258       .  A
O250        C257   1.256       .  A
O251        C258   1.282       .  A
O252        C259   1.294       .  A
O253        C259   1.254       .  A
C254       C1892   1.472       .  S
C255       C1878   1.471       .  S
C256       C1853   1.511       .  S
C257       C2021   1.489       .  S
C258       C1906   1.486       .  S
C259       C1864   1.472       .  S
Zn260       O264   1.900   1_455  S
Zn260       O265   2.020       .  S
Zn260       O269   2.144       .  S
Zn260       O276   2.137       .  S
Zn261       O264   1.876       .  S
Zn261       O266   1.920       .  S
Zn261       O268   1.946       .  S
Zn261       O272   1.938       .  S
Zn262       O264   1.871       .  S
Zn262       O267   1.901       .  S
Zn262       O270   1.986       .  S
Zn262       O273   1.906       .  S
Zn263       O264   1.901       .  S
Zn263       O271   2.134       .  S
Zn263       O274   2.095       .  S
Zn263       O275   1.926       .  S
O265        C277   1.277       .  A
O266        C278   1.266       .  A
O267        C279   1.257   1_655  A
O268        C277   1.265   1_655  A
O269        C279   1.290       .  A
O270        C278   1.275       .  A
O271        C280   1.291       .  A
O272        C281   1.265       .  A
O273        C280   1.264       .  A
O274        C281   1.281       .  A
O275        C282   1.259   1_655  A
O276        C282   1.295       .  A
C277       C1937   1.457       .  S
C278       C1836   1.469       .  S
C279       C1822   1.503       .  S
C280       C1794   1.499       .  S
C281       C1993   1.515       .  S
C282       C1808   1.499       .  S
C283        C308   1.591       .  S
C283       C1780   1.593       .  S
C283       C1825   1.584       .  S
C283       C2774   1.570       .  S
C284        C307   1.604       .  S
C284       C2287   1.578       .  S
C284       C2399   1.598       .  S
C284       C2595   1.596       .  S
C285        C311   1.578       .  S
C285       C1766   1.589       .  S
C285       C1839   1.578       .  S
C285       C2063   1.592       .  S
C286        C310   1.599       .  S
C286       C1909   1.589       .  S
C286       C2259   1.576       .  S
C286       C2315   1.582       .  S
C287        C309   1.582       .  S
C287       C1738   1.573       .  S
C287       C1752   1.583       .  S
C287       C1881   1.574       .  S
C288        C306   1.578       .  S
C288       C1727   1.573       .  S
C288       C2606   1.560       .  S
C288       C2749   1.585       .  S
Zn289       O293   2.026       .  S
Zn289       O294   2.075       .  S
Zn289       O298   2.072       .  S
Zn289       O305   2.037   1_455  S
Zn290       O293   2.019       .  S
Zn290       O295   2.094       .  S
Zn290       O297   2.124       .  S
Zn290       O301   2.159   1_455  S
Zn291       O293   2.058       .  S
Zn291       O296   2.212       .  S
Zn291       O299   2.230       .  S
Zn291       O302   2.203   1_455  S
Zn292       O293   2.045   1_655  S
Zn292       O300   2.085       .  S
Zn292       O303   2.128       .  S
Zn292       O304   2.171       .  S
O294        C306   1.272       .  A
O295        C307   1.284       .  A
O296        C308   1.296       .  A
O297        C306   1.296       .  A
O298        C308   1.280       .  A
O299        C307   1.303       .  A
O300        C309   1.284       .  A
O301        C310   1.289       .  A
O302        C309   1.299       .  A
O303        C310   1.286       .  A
O304        C311   1.285       .  A
O305        C311   1.276       .  A
C312        C340   1.603       .  S
C312       C1710   1.585       .  S
C312       C2329   1.608       .  S
C312       C2525   1.576       .  S
C313        C337   1.596       .  S
C313       C1696   1.592       .  S
C313       C2357   1.584       .  S
C313       C2665   1.582       .  S
C314        C339   1.597       .  S
C314       C1654   1.609       .  S
C314       C1668   1.590       .  S
C314       C1682   1.580       .  S
C315        C336   1.589       .  S
C315       C1612   1.607       .  S
C315       C1626   1.587       .  S
C315       C1640   1.569       .  S
C316        C338   1.583       .  S
C316       C1584   1.573       .  S
C316       C1601   1.588       .  S
C316       C2690   1.566       .  S
C317        C335   1.600       .  S
C317       C1570   1.569       .  S
C317       C2511   1.592       .  S
C317       C2564   1.576       .  S
Zn318       O322   2.023   1_554  S
Zn318       O323   2.166       .  S
Zn318       O327   2.141       .  S
Zn318       O334   2.065       .  S
Zn319       O322   2.022       .  S
Zn319       O324   2.170       .  S
Zn319       O326   2.097   1_556  S
Zn319       O330   2.120       .  S
Zn320       O322   2.019       .  S
Zn320       O325   2.137   1_556  S
Zn320       O328   2.104       .  S
Zn320       O331   2.052       .  S
Zn321       O322   2.066       .  S
Zn321       O329   2.182       .  S
Zn321       O332   2.180       .  S
Zn321       O333   2.249       .  S
O323        C335   1.287       .  A
O324        C336   1.292       .  A
O325        C337   1.286       .  A
O326        C335   1.284       .  A
O327        C337   1.293       .  A
O328        C336   1.283       .  A
O329        C338   1.292       .  A
O330        C339   1.286       .  A
O331        C338   1.283       .  A
O332        C339   1.297       .  A
O333        C340   1.303   1_556  A
O334        C340   1.278       .  A
Zn341       O345   1.898       .  S
Zn341       O346   2.158       .  S
Zn341       O350   2.061       .  S
Zn341       O357   2.163       .  S
Zn342       O345   1.881       .  S
Zn342       O347   2.090       .  S
Zn342       O349   1.918       .  S
Zn342       O353   2.149       .  S
Zn343       O345   1.840       .  S
Zn343       O348   1.960       .  S
Zn343       O351   1.939       .  S
Zn343       O354   1.947       .  S
Zn344       O345   1.836       .  S
Zn344       O352   1.996       .  S
Zn344       O355   1.951       .  S
Zn344       O356   1.852       .  S
O346        C358   1.298       .  A
O347        C359   1.281       .  A
O348        C360   1.266       .  A
O349        C358   1.259       .  A
O350        C360   1.279       .  A
O351        C359   1.256       .  A
O352        C361   1.280       .  A
O353        C362   1.292       .  A
O354        C361   1.268       .  A
O355        C362   1.267       .  A
O356        C363   1.254       .  A
O357        C363   1.293       .  A
C358       C1528   1.487       .  S
C359       C1629   1.498       .  S
C360       C1671   1.465       .  S
C361       C1556   1.454       .  S
C362       C1783   1.511       .  S
C363       C1542   1.499       .  S
C364        C389   1.565       .  S
C364       C1514   1.568       .  S
C364       C2049   1.587       .  S
C364       C2340   1.590       .  S
C365        C392   1.592       .  S
C365       C1486   1.577       .  S
C365       C1500   1.603       .  S
C365       C1895   1.582       .  S
C366        C387   1.587       .  S
C366       C1472   1.613       .  S
C366       C1559   1.553       .  S
C366       C2763   1.614       .  S
C367        C388   1.579       .  S
C367       C1458   1.583       .  S
C367       C2553   1.564       .  S
C367       C2788   1.551       .  S
C368        C390   1.586       .  S
C368       C1867   1.578       .  S
C368       C2371   1.569       .  S
C368       C2483   1.562       .  S
C369        C391   1.603       .  S
C369       C1447   1.562       .  S
C369       C1545   1.587       .  S
C369       C2382   1.572       .  S
Zn370       O374   2.044       .  S
Zn370       O375   2.160       .  S
Zn370       O379   2.145       .  S
Zn370       O386   2.190       .  S
Zn371       O374   2.018       .  S
Zn371       O376   2.068       .  S
Zn371       O378   2.136       .  S
Zn371       O382   2.123       .  S
Zn372       O374   2.042       .  S
Zn372       O377   2.071       .  S
Zn372       O380   2.125       .  S
Zn372       O383   2.122       .  S
Zn373       O374   2.010       .  S
Zn373       O381   2.152       .  S
Zn373       O384   2.143       .  S
Zn373       O385   2.120       .  S
O375        C387   1.292       .  A
O376        C388   1.283       .  A
O377        C389   1.280       .  A
O378        C387   1.290       .  A
O379        C389   1.292       .  A
O380        C388   1.280       .  A
O381        C390   1.293       .  A
O382        C391   1.280       .  A
O383        C390   1.290       .  A
O384        C391   1.294       .  A
O385        C392   1.287       .  A
O386        C392   1.294       .  A
Zn393       O397   1.923       .  S
Zn393       O398   2.064       .  S
Zn393       O402   2.147       .  S
Zn393       O409   2.100       .  S
Zn394       O397   1.853       .  S
Zn394       O399   1.916       .  S
Zn394       O401   1.951       .  S
Zn394       O405   1.963       .  S
Zn395       O397   1.853       .  S
Zn395       O400   1.947       .  S
Zn395       O403   2.086       .  S
Zn395       O406   2.151       .  S
Zn396       O397   1.843       .  S
Zn396       O404   1.957       .  S
Zn396       O407   2.047       .  S
Zn396       O408   1.897       .  S
O398        C410   1.277       .  A
O399        C411   1.265       .  A
O400        C412   1.258       .  A
O401        C410   1.264       .  A
O402        C412   1.288       .  A
O403        C411   1.291       .  A
O404        C413   1.273       .  A
O405        C414   1.266       .  A
O406        C413   1.294       .  A
O407        C414   1.284       .  A
O408        C415   1.263       .  A
O409        C415   1.292       .  A
C410       C1615   1.496       .  S
C411       C1587   1.473       .  S
C412       C1475   1.505       .  S
C413       C1402   1.504       .  S
C414       C1430   1.477       .  S
C415       C1419   1.478       .  S
Zn416       O420   1.857       .  S
Zn416       O421   1.929       .  S
Zn416       O425   1.946       .  S
Zn416       O432   1.924   1_565  S
Zn417       O420   1.865       .  S
Zn417       O422   1.930       .  S
Zn417       O424   2.023       .  S
Zn417       O428   1.875   1_565  S
Zn418       O420   1.915       .  S
Zn418       O423   2.094       .  S
Zn418       O426   2.103       .  S
Zn418       O429   1.925       .  S
Zn419       O420   1.896   1_545  S
Zn419       O427   2.164       .  S
Zn419       O430   2.180       .  S
Zn419       O431   2.069       .  S
O421        C433   1.260       .  A
O422        C434   1.263       .  A
O423        C435   1.277       .  A
O424        C433   1.277       .  A
O425        C435   1.262       .  A
O426        C434   1.290       .  A
O427        C436   1.301       .  A
O428        C437   1.254       .  A
O429        C436   1.262   1_565  A
O430        C437   1.297       .  A
O431        C438   1.279       .  A
O432        C438   1.258       .  A
C433       C1374   1.449       .  S
C434       C1332   1.476       .  S
C435       C1363   1.507       .  S
C436       C1979   1.505       .  S
C437       C1349   1.503       .  S
C438       C1388   1.471       .  S
Zn439       O443   1.901       .  S
Zn439       O444   2.113       .  S
Zn439       O448   1.925       .  S
Zn439       O455   2.144       .  S
Zn440       O443   1.899       .  S
Zn440       O445   1.958       .  S
Zn440       O447   1.973       .  S
Zn440       O451   1.934       .  S
Zn441       O443   1.880   1_556  S
Zn441       O446   2.098       .  S
Zn441       O449   2.000       .  S
Zn441       O452   2.131       .  S
Zn442       O443   1.880       .  S
Zn442       O450   1.945   1_554  S
Zn442       O453   1.954       .  S
Zn442       O454   1.869       .  S
O444        C456   1.283       .  A
O445        C457   1.262   1_554  A
O446        C458   1.292       .  A
O447        C456   1.268       .  A
O448        C458   1.265   1_554  A
O449        C457   1.272       .  A
O450        C459   1.258       .  A
O451        C460   1.267       .  A
O452        C459   1.279       .  A
O453        C460   1.268       .  A
O454        C461   1.257       .  A
O455        C461   1.294       .  A
C456       C1276   1.522       .  S
C457       C1307   1.461       .  S
C458       C1643   1.492       .  S
C459       C1293   1.515       .  S
C460       C1318   1.452       .  S
C461       C1265   1.472       .  S
C462        C486   1.576       .  S
C462       C1248   1.572       .  S
C462       C1304   1.551       .  S
C462       C1416   1.575       .  S
C463        C488   1.578       .  S
C463       C1234   1.559       .  S
C463       C1433   1.583       .  S
C463       C2651   1.597       .  S
C464        C489   1.580       .  S
C464       C1223   1.581       .  S
C464       C1279   1.616       .  S
C464       C1377   1.566       .  S
C465        C485   1.596       .  S
C465       C1206   1.585       .  S
C465       C1346   1.591       .  S
C465       C2536   1.536       .  S
C466        C487   1.596       .  S
C466       C1164   1.594       .  S
C466       C1178   1.588       .  S
C466       C1192   1.567       .  S
C467        C490   1.612       .  S
C467       C1153   1.578       .  S
C467       C2147   1.592       .  S
C467       C2497   1.588       .  S
Zn468       O472   1.996       .  S
Zn468       O473   2.124       .  S
Zn468       O477   2.142   1_554  S
Zn468       O484   2.119       .  S
Zn469       O472   2.033       .  S
Zn469       O474   2.077   1_544  S
Zn469       O476   2.095       .  S
Zn469       O480   2.102   1_545  S
Zn470       O472   2.007   1_556  S
Zn470       O475   2.145       .  S
Zn470       O478   2.138   1_545  S
Zn470       O481   2.048   1_545  S
Zn471       O472   2.065   1_565  S
Zn471       O479   2.187       .  S
Zn471       O482   2.175       .  S
Zn471       O483   2.254   1_565  S
O473        C485   1.298       .  A
O474        C486   1.280       .  A
O475        C487   1.291       .  A
O476        C485   1.277       .  A
O477        C487   1.290       .  A
O478        C486   1.283       .  A
O479        C488   1.291   1_554  A
O480        C489   1.287       .  A
O481        C488   1.283       .  A
O482        C489   1.298       .  A
O483        C490   1.302       .  A
O484        C490   1.288       .  A
Zn491       O495   1.880       .  S
Zn491       O496   1.938   1_655  S
Zn491       O500   1.966       .  S
Zn491       O507   1.960       .  S
Zn492       O495   1.871   1_455  S
Zn492       O497   1.906   1_455  S
Zn492       O499   2.076       .  S
Zn492       O503   2.140       .  S
Zn493       O495   1.891       .  S
Zn493       O498   2.045       .  S
Zn493       O501   2.160       .  S
Zn493       O504   2.154       .  S
Zn494       O495   1.882       .  S
Zn494       O502   1.928       .  S
Zn494       O505   1.855       .  S
Zn494       O506   1.966   1_655  S
O496        C508   1.267       .  A
O497        C509   1.257       .  A
O498        C510   1.274       .  A
O499        C508   1.286       .  A
O500        C510   1.269       .  A
O501        C509   1.298       .  A
O502        C511   1.254       .  A
O503        C512   1.293       .  A
O504        C511   1.286       .  A
O505        C512   1.255   1_655  A
O506        C513   1.270       .  A
O507        C513   1.268   1_655  A
C508       C1094   1.498       .  S
C509       C2032   1.484       .  S
C510       C1122   1.488       .  S
C511       C1108   1.517       .  S
C512       C1724   1.492       .  S
C513       C1136   1.456       .  S
Zn514       O518   1.912       .  S
Zn514       O519   1.872       .  S
Zn514       O523   2.099       .  S
Zn514       O530   2.117       .  S
Zn515       O518   1.948   1_554  S
Zn515       O520   2.056       .  S
Zn515       O522   2.153       .  S
Zn515       O526   2.106       .  S
Zn516       O518   1.906       .  S
Zn516       O521   1.976       .  S
Zn516       O524   1.961       .  S
Zn516       O527   1.959       .  S
Zn517       O518   1.901       .  S
Zn517       O525   1.988       .  S
Zn517       O528   1.875       .  S
Zn517       O529   1.963       .  S
O519        C531   1.253   1_556  A
O520        C532   1.278       .  A
O521        C533   1.274       .  A
O522        C531   1.293       .  A
O523        C533   1.283       .  A
O524        C532   1.266   1_556  A
O525        C534   1.279       .  A
O526        C535   1.287       .  A
O527        C534   1.264       .  A
O528        C535   1.251   1_556  A
O529        C536   1.267       .  A
O530        C536   1.287       .  A
C531       C1713   1.479       .  S
C532       C1150   1.495       .  S
C533       C1181   1.493       .  S
C534       C1080   1.475       .  S
C535       C1066   1.465       .  S
C536       C1052   1.510       .  S
Zn537       O541   1.902       .  S
Zn537       O542   2.110       .  S
Zn537       O546   2.005       .  S
Zn537       O553   2.100       .  S
Zn538       O541   1.893       .  S
Zn538       O543   1.980   1_565  S
Zn538       O545   1.935       .  S
Zn538       O549   1.886   1_565  S
Zn539       O541   1.881       .  S
Zn539       O544   1.974       .  S
Zn539       O547   1.929   1_565  S
Zn539       O550   1.940   1_565  S
Zn540       O541   1.902   1_545  S
Zn540       O548   2.127       .  S
Zn540       O551   2.126       .  S
Zn540       O552   1.917   1_545  S
O542        C554   1.283       .  A
O543        C555   1.271       .  A
O544        C556   1.266       .  A
O545        C554   1.257       .  A
O546        C556   1.270       .  A
O547        C555   1.266       .  A
O548        C557   1.292       .  A
O549        C558   1.259       .  A
O550        C557   1.266       .  A
O551        C558   1.290       .  A
O552        C559   1.263       .  A
O553        C559   1.293       .  A
C554       C1920   1.509       .  S
C555       C1948   1.458       .  S
C556       C1041   1.481       .  S
C557       C1024   1.499       .  S
C558       C1013   1.493       .  S
C559       C1251   1.477       .  S
C560        C585   1.591       .  S
C560        C985   1.593       .  S
C560        C999   1.592       .  S
C560       C1027   1.606       .  S
C561        C586   1.573       .  S
C561       C1097   1.572       .  S
C561       C1321   1.576       .  S
C561       C1335   1.575       .  S
C562        C588   1.601       .  S
C562       C1069   1.553       .  S
C562       C2203   1.595       .  S
C562       C2228   1.573       .  S
C563        C587   1.589       .  S
C563       C1125   1.588       .  S
C563       C2175   1.579       .  S
C563       C2634   1.593       .  S
C564        C584   1.600       .  S
C564       C1038   1.586       .  S
C564       C1290   1.604       .  S
C564       C1811   1.582       .  S
C565        C583   1.590       .  S
C565        C954   1.566       .  S
C565        C968   1.597       .  S
C565       C1083   1.588       .  S
Zn566       O570   1.998   1_655  S
Zn566       O571   2.062       .  S
Zn566       O575   2.168   1_655  S
Zn566       O582   2.177   1_556  S
Zn567       O570   2.065   1_665  S
Zn567       O572   2.237   1_655  S
Zn567       O574   2.203   1_565  S
Zn567       O578   2.195       .  S
Zn568       O570   2.028   1_565  S
Zn568       O573   2.117   1_565  S
Zn568       O576   2.079       .  S
Zn568       O579   2.041   1_556  S
Zn569       O570   2.043   1_654  S
Zn569       O577   2.129   1_645  S
Zn569       O580   2.075   1_545  S
Zn569       O581   2.124       .  S
O571        C583   1.278       .  A
O572        C584   1.302       .  A
O573        C585   1.280       .  A
O574        C583   1.295       .  A
O575        C585   1.295       .  A
O576        C584   1.281       .  A
O577        C586   1.288       .  A
O578        C587   1.295   1_556  A
O579        C586   1.281       .  A
O580        C587   1.280       .  A
O581        C588   1.285       .  A
O582        C588   1.296       .  A
Zn589       O593   1.844       .  S
Zn589       O594   1.929       .  S
Zn589       O598   1.921       .  S
Zn589       O605   1.945       .  S
Zn590       O593   1.917   1_554  S
Zn590       O595   2.154       .  S
Zn590       O597   2.071       .  S
Zn590       O601   2.136       .  S
Zn591       O593   1.893       .  S
Zn591       O596   2.027       .  S
Zn591       O599   1.939       .  S
Zn591       O602   1.969       .  S
Zn592       O593   1.909       .  S
Zn592       O600   2.100       .  S
Zn592       O603   1.938       .  S
Zn592       O604   2.100       .  S
O594        C606   1.261   1_556  A
O595        C607   1.293       .  A
O596        C608   1.281       .  A
O597        C606   1.280       .  A
O598        C608   1.264       .  A
O599        C607   1.261   1_556  A
O600        C609   1.288       .  A
O601        C610   1.293       .  A
O602        C609   1.273       .  A
O603        C610   1.263   1_556  A
O604        C611   1.280       .  A
O605        C611   1.263       .  A
C606       C1573   1.472       .  S
C607        C926   1.493       .  S
C608        C943   1.469       .  S
C609        C996   1.501       .  S
C610       C1209   1.500       .  S
C611       C1657   1.510       .  S
Zn612       O616   1.836       .  S
Zn612       O617   1.957       .  S
Zn612       O621   1.943       .  S
Zn612       O628   1.954       .  S
Zn613       O616   1.849       .  S
Zn613       O618   1.979       .  S
Zn613       O620   2.024       .  S
Zn613       O624   1.898       .  S
Zn614       O616   1.864       .  S
Zn614       O619   2.035       .  S
Zn614       O622   2.132       .  S
Zn614       O625   1.943       .  S
Zn615       O616   1.921       .  S
Zn615       O623   2.158       .  S
Zn615       O626   2.119       .  S
Zn615       O627   2.065       .  S
O617        C629   1.267       .  A
O618        C630   1.275       .  A
O619        C631   1.284       .  A
O620        C629   1.281       .  A
O621        C631   1.270       .  A
O622        C630   1.293       .  A
O623        C632   1.287       .  A
O624        C633   1.258       .  A
O625        C632   1.251       .  A
O626        C633   1.290       .  A
O627        C634   1.281       .  A
O628        C634   1.263       .  A
C629        C912   1.462       .  S
C630       C1598   1.502       .  S
C631       C1769   1.462       .  S
C632       C1503   1.504       .  S
C633        C898   1.486       .  S
C634       C1741   1.486       .  S
Zn635       O639   1.794       .  S
Zn635       O640   1.873       .  S
Zn635       O644   1.978       .  S
Zn635       O651   1.908       .  S
Zn636       O639   1.885   1_655  S
Zn636       O641   2.077       .  S
Zn636       O643   2.158       .  S
Zn636       O647   2.151       .  S
Zn637       O639   1.869       .  S
Zn637       O642   1.978       .  S
Zn637       O645   1.954   1_455  S
Zn637       O648   1.906       .  S
Zn638       O639   1.869       .  S
Zn638       O646   2.088       .  S
Zn638       O649   1.897       .  S
Zn638       O650   2.135       .  S
O640        C652   1.260   1_455  A
O641        C653   1.279       .  A
O642        C654   1.266       .  A
O643        C652   1.298       .  A
O644        C654   1.266       .  A
O645        C653   1.263       .  A
O646        C655   1.292       .  A
O647        C656   1.296       .  A
O648        C655   1.267       .  A
O649        C656   1.260   1_455  A
O650        C657   1.289       .  A
O651        C657   1.258       .  A
C652        C957   1.490       .  S
C653        C884   1.482       .  S
C654        C982   1.472       .  S
C655        C870   1.467       .  S
C656       C1755   1.476       .  S
C657       C1962   1.480       .  S
C658        C684   1.597       .  S
C658        C887   1.597       .  S
C658        C901   1.581       .  S
C658       C1055   1.591       .  S
C659        C682   1.564       .  S
C659        C873   1.566       .  S
C659        C940   1.584       .  S
C659       C1531   1.586       .  S
C660        C685   1.585       .  S
C660        C915   1.580       .  S
C660       C1797   1.578       .  S
C660       C2676   1.607       .  S
C661        C683   1.612       .  S
C661        C929   1.592       .  S
C661       C2217   1.582       .  S
C661       C2623   1.584       .  S
C662        C686   1.611       .  S
C662       C1111   1.605       .  S
C662       C2298   1.568       .  S
C662       C2707   1.561       .  S
C663        C681   1.569       .  S
C663       C1139   1.545       .  S
C663       C1262   1.566       .  S
C663       C2581   1.578       .  S
Zn664       O668   2.027   1_455  S
Zn664       O669   2.057       .  S
Zn664       O673   2.147       .  S
Zn664       O680   2.216   1_455  S
Zn665       O668   2.051   1_456  S
Zn665       O670   2.133       .  S
Zn665       O672   2.162   1_556  S
Zn665       O676   2.159   1_455  S
Zn666       O668   2.011   1_456  S
Zn666       O671   2.173   1_556  S
Zn666       O674   2.042       .  S
Zn666       O677   2.117   1_455  S
Zn667       O668   2.028   1_556  S
Zn667       O675   2.161       .  S
Zn667       O678   2.113       .  S
Zn667       O679   2.095   1_556  S
O669        C681   1.282       .  A
O670        C682   1.287       .  A
O671        C683   1.292       .  A
O672        C681   1.292       .  A
O673        C683   1.290       .  A
O674        C682   1.275       .  A
O675        C684   1.291       .  A
O676        C685   1.293       .  A
O677        C684   1.281       .  A
O678        C685   1.285       .  A
O679        C686   1.292       .  A
O680        C686   1.295       .  A
Zn687       O691   1.854       .  S
Zn687       O692   1.945       .  S
Zn687       O696   1.932       .  S
Zn687       O703   1.922       .  S
Zn688       O691   1.891       .  S
Zn688       O693   2.131       .  S
Zn688       O695   2.078       .  S
Zn688       O699   1.919       .  S
Zn689       O691   1.884       .  S
Zn689       O694   2.029       .  S
Zn689       O697   1.955       .  S
Zn689       O700   1.910       .  S
Zn690       O691   1.899       .  S
Zn690       O698   2.117       .  S
Zn690       O701   2.143       .  S
Zn690       O702   2.073       .  S
O692        C704   1.265       .  A
O693        C705   1.290       .  A
O694        C706   1.279       .  A
O695        C704   1.279       .  A
O696        C706   1.261       .  A
O697        C705   1.269       .  A
O698        C707   1.293       .  A
O699        C708   1.259       .  A
O700        C707   1.261       .  A
O701        C708   1.292       .  A
O702        C709   1.280       .  A
O703        C709   1.261       .  A
C704        C842   1.506       .  S
C705       C1699   1.504       .  S
C706       C1517   1.456       .  S
C707       C1461   1.484       .  S
C708       C1220   1.484       .  S
C709        C856   1.460       .  S
Zn710       O714   1.804       .  S
Zn710       O715   1.892       .  S
Zn710       O719   1.967       .  S
Zn710       O726   1.822       .  S
Zn711       O714   1.842       .  S
Zn711       O716   2.088       .  S
Zn711       O718   2.098       .  S
Zn711       O722   1.933       .  S
Zn712       O714   1.842       .  S
Zn712       O717   1.949       .  S
Zn712       O720   1.889       .  S
Zn712       O723   1.943       .  S
Zn713       O714   1.872       .  S
Zn713       O721   2.009       .  S
Zn713       O724   2.123       .  S
Zn713       O725   2.160       .  S
O715        C727   1.255       .  A
O716        C728   1.288       .  A
O717        C729   1.266       .  A
O718        C727   1.295       .  A
O719        C729   1.271       .  A
O720        C728   1.263       .  A
O721        C730   1.271       .  A
O722        C731   1.264       .  A
O723        C730   1.264       .  A
O724        C731   1.295       .  A
O725        C732   1.294       .  A
O726        C732   1.251       .  A
C727       C1195   1.469       .  S
C728       C1489   1.461       .  S
C729        C828   1.461       .  S
C730       C1444   1.448       .  S
C731       C1685   1.477       .  S
C732        C814   1.476       .  S
Zn733       O737   1.836   1_565  S
Zn733       O738   1.952       .  S
Zn733       O742   1.895   1_565  S
Zn733       O749   2.016       .  S
Zn734       O737   1.850   1_565  S
Zn734       O739   1.938   1_565  S
Zn734       O741   2.112       .  S
Zn734       O745   2.047       .  S
Zn735       O737   1.899       .  S
Zn735       O740   2.192       .  S
Zn735       O743   2.156       .  S
Zn735       O746   2.130       .  S
Zn736       O737   1.839       .  S
Zn736       O744   1.945       .  S
Zn736       O747   1.868   1_545  S
Zn736       O748   1.947   1_545  S
O738        C750   1.270       .  A
O739        C751   1.257       .  A
O740        C752   1.305       .  A
O741        C750   1.287       .  A
O742        C752   1.261       .  A
O743        C751   1.290       .  A
O744        C753   1.262       .  A
O745        C754   1.285       .  A
O746        C753   1.276       .  A
O747        C754   1.260       .  A
O748        C755   1.264       .  A
O749        C755   1.279       .  A
C750       C2007   1.500       .  S
C751        C971   1.507       .  S
C752        C786   1.503       .  S
C753       C1167   1.514       .  S
C754       C1237   1.447       .  S
C755        C803   1.451       .  S
C756        C781   1.588       .  S
C756        C817   1.570       .  S
C756       C1010   1.559       .  S
C756       C2438   1.581       .  S
C757        C779   1.609       .  S
C757        C800   1.570       .  S
C757       C1405   1.580       .  S
C757       C2077   1.582       .  S
C758        C784   1.597       .  S
C758        C789   1.596       .  S
C758        C831   1.566       .  S
C758       C1850   1.599       .  S
C759        C780   1.584       .  S
C759        C859   1.580       .  S
C759       C1360   1.600       .  S
C759       C2721   1.568       .  S
C760        C783   1.579       .  S
C760        C845   1.601       .  S
C760       C2119   1.568       .  S
C760       C2133   1.590       .  S
C761        C782   1.578       .  S
C761       C1391   1.569       .  S
C761       C2413   1.577       .  S
C761       C2469   1.585       .  S
Zn762       O766   2.030       .  S
Zn762       O767   2.134   1_545  S
Zn762       O771   2.182       .  S
Zn762       O778   2.121       .  S
Zn763       O766   2.029   1_565  S
Zn763       O768   2.112       .  S
Zn763       O770   2.186       .  S
Zn763       O774   2.071       .  S
Zn764       O766   2.029       .  S
Zn764       O769   2.092       .  S
Zn764       O772   2.151   1_545  S
Zn764       O775   2.040       .  S
Zn765       O766   2.096       .  S
Zn765       O773   2.221       .  S
Zn765       O776   2.214       .  S
Zn765       O777   2.225       .  S
O767        C779   1.293       .  A
O768        C780   1.290       .  A
O769        C781   1.287       .  A
O770        C779   1.291       .  A
O771        C781   1.292       .  A
O772        C780   1.287       .  A
O773        C782   1.299       .  A
O774        C783   1.284       .  A
O775        C782   1.279       .  A
O776        C783   1.293   1_545  A
O777        C784   1.301       .  A
O778        C784   1.290       .  A
C785        C786   1.381       .  A
C785        C790   1.401       .  A
C785        H792   1.084       .  S
C786        C787   1.432       .  A
C787        C788   1.420       .  A
C787        N794   1.439       .  S
C788        C789   1.402       .  A
C788        H793   1.081       .  S
C789        C790   1.451       .  A
C790        N791   1.432       .  S
N791        H795   1.044       .  S
N791        H796   1.044       .  S
N794        H797   1.045       .  S
N794        H798   1.045   1_545  S
C799        C800   1.427       .  A
C799        C804   1.408       .  A
C799        H806   1.064       .  S
C800        C801   1.425       .  A
C801        C802   1.387       .  A
C801        N808   1.430       .  S
C802        C803   1.385       .  A
C802        H807   1.078       .  S
C803        C804   1.396       .  A
C804        N805   1.438       .  S
N805        H809   1.045       .  S
N805        H810   1.045       .  S
N808        H811   1.045       .  S
N808        H812   1.042       .  S
C813        C814   1.377       .  A
C813        C818   1.399       .  A
C813        H820   1.084       .  S
C814        C815   1.423       .  A
C815        C816   1.407       .  A
C815        N822   1.434       .  S
C816        C817   1.396       .  A
C816        H821   1.081       .  S
C817        C818   1.455       .  A
C818        N819   1.433       .  S
N819        H823   1.045       .  S
N819        H824   1.045       .  S
N822        H825   1.045       .  S
N822        H826   1.045       .  S
C827        C828   1.403       .  A
C827        C832   1.398       .  A
C827        H834   1.084       .  S
C828        C829   1.409       .  A
C829        C830   1.395       .  A
C829        N836   1.433       .  S
C830        C831   1.420       .  A
C830        H835   1.083       .  S
C831        C832   1.412       .  A
C832        N833   1.431       .  S
N833        H837   1.046       .  S
N833        H838   1.046       .  S
N836        H839   1.046       .  S
N836        H840   1.046       .  S
C841        C842   1.411       .  A
C841        C846   1.404       .  A
C841        H848   1.082       .  S
C842        C843   1.420       .  A
C843        C844   1.415       .  A
C843        N850   1.431       .  S
C844        C845   1.428       .  A
C844        H849   1.084       .  S
C845        C846   1.410       .  A
C846        N847   1.435       .  S
N847        H851   1.039       .  S
N847        H852   1.046       .  S
N850        H853   1.045       .  S
N850        H854   1.045       .  S
C855        C856   1.402       .  A
C855        C860   1.402       .  A
C855        H862   1.084       .  S
C856        C857   1.405       .  A
C857        C858   1.403       .  A
C857        N864   1.437       .  S
C858        C859   1.404       .  A
C858        H863   1.078       .  S
C859        C860   1.426       .  A
C860        N861   1.433       .  S
N861        H865   1.046       .  S
N861        H866   1.045       .  S
N864        H867   1.040       .  S
N864        H868   1.046       .  S
C869        C870   1.418       .  A
C869        C874   1.410       .  A
C869        H876   1.084       .  S
C870        C871   1.392       .  A
C871        C872   1.383       .  A
C871        N878   1.433       .  S
C872        C873   1.432       .  A
C872        H877   1.083       .  S
C873        C874   1.403       .  A
C874        N875   1.428       .  S
N875        H879   1.045   1_455  S
N875        H880   1.044   1_455  S
N878        H881   1.045       .  S
N878        H882   1.045       .  S
C883        C884   1.405       .  A
C883        C888   1.405       .  A
C883        H890   1.084       .  S
C884        C885   1.400       .  A
C885        C886   1.398       .  A
C885        N892   1.432       .  S
C886        C887   1.433       .  A
C886        H891   1.082       .  S
C887        C888   1.425       .  A
C888        N889   1.427       .  S
N889        H893   1.046       .  S
N889        H894   1.046       .  S
N892        H895   1.046       .  S
N892        H896   1.045       .  S
C897        C898   1.398       .  A
C897        C902   1.406       .  A
C897        H904   1.084       .  S
C898        C899   1.427       .  A
C899        C900   1.402       .  A
C899        N906   1.434       .  S
C900        C901   1.399       .  A
C900        H905   1.077       .  S
C901        C902   1.429       .  A
C902        N903   1.432       .  S
N903        H907   1.045       .  S
N903        H908   1.045       .  S
N906        H909   1.046       .  S
N906        H910   1.044       .  S
C911        C912   1.407       .  A
C911        C916   1.406       .  A
C911        H918   1.084       .  S
C912        C913   1.390       .  A
C913        C914   1.396       .  A
C913        N920   1.438       .  S
C914        C915   1.428       .  A
C914        H919   1.078       .  S
C915        C916   1.417       .  A
C916        N917   1.430       .  S
N917        H921   1.045       .  S
N917        H922   1.046       .  S
N920        H923   1.046       .  S
N920        H924   1.046       .  S
C925        C926   1.401       .  A
C925        C930   1.411       .  A
C925        H932   1.084       .  S
C926        C927   1.428       .  A
C927        C928   1.419       .  A
C927        N934   1.438       .  S
C928        C929   1.407       .  A
C928        H933   1.084       .  S
C929        C930   1.429       .  A
C930        N931   1.434       .  S
N931        H935   1.046       .  S
N931        H936   1.045       .  S
N934        H937   1.042       .  S
N934        H938   1.045       .  S
C939        C940   1.409       .  A
C939        C944   1.399       .  A
C939        H946   1.063       .  S
C940        C941   1.439       .  A
C941        C942   1.400       .  A
C941        N948   1.432       .  S
C942        C943   1.393       .  A
C942        H947   1.084       .  S
C943        C944   1.410       .  A
C944        N945   1.440       .  S
N945        H949   1.046       .  S
N945        H950   1.046       .  S
N948        H951   1.046       .  S
N948        H952   1.046       .  S
C953        C954   1.389       .  A
C953        C958   1.398       .  A
C953        H960   1.082       .  S
C954        C955   1.449       .  A
C955        C956   1.400       .  A
C955        N962   1.434       .  S
C956        C957   1.384       .  A
C956        H961   1.084       .  S
C957        C958   1.425       .  A
C958        N959   1.422   1_655  S
N959        H963   1.046       .  S
N959        H964   1.042       .  S
N962        H965   1.042       .  S
N962        H966   1.043       .  S
C967        C968   1.431       .  A
C967        C972   1.410       .  A
C967        H974   1.083       .  S
C968        C969   1.403       .  A
C969        C970   1.413       .  A
C969        N976   1.437   1_545  S
C970        C971   1.422       .  A
C970        H975   1.083       .  S
C971        C972   1.412       .  A
C972        N973   1.431       .  S
N973        H977   1.044       .  S
N973        H978   1.042       .  S
N976        H979   1.045       .  S
N976        H980   1.046       .  S
C981        C982   1.407       .  A
C981        C986   1.405       .  A
C981        H988   1.084       .  S
C982        C983   1.407       .  A
C983        C984   1.382       .  A
C983        N990   1.436       .  S
C984        C985   1.420       .  A
C984        H989   1.081       .  S
C985        C986   1.431       .  A
C986        N987   1.437       .  S
N987        H991   1.045       .  S
N987        H992   1.037       .  S
N990        H993   1.045       .  S
N990        H994   1.044       .  S
C995        C996   1.409       .  A
C995       C1000   1.421       .  A
C995       H1002   1.083       .  S
C996        C997   1.429       .  A
C997        C998   1.403       .  A
C997       N1004   1.433   1_556  S
C998        C999   1.392       .  A
C998       H1003   1.075   1_556  S
C999       C1000   1.429       .  A
C1000      N1001   1.433       .  S
N1001      H1005   1.045       .  S
N1001      H1006   1.045       .  S
N1004      H1007   1.044   1_554  S
N1004      H1008   1.046       .  S
C1009      C1010   1.395       .  A
C1009      C1014   1.403       .  A
C1009      H1016   1.084       .  S
C1010      C1011   1.429       .  A
C1011      C1012   1.409       .  A
C1011      N1018   1.434       .  S
C1012      C1013   1.398       .  A
C1012      H1017   1.083       .  S
C1013      C1014   1.429       .  A
C1014      N1015   1.433   1_545  S
N1015      H1019   1.046       .  S
N1015      H1020   1.046       .  S
N1018      H1021   1.046       .  S
N1018      H1022   1.045       .  S
C1023      C1024   1.416       .  A
C1023      C1028   1.410       .  A
C1023      H1030   1.073       .  S
C1024      C1025   1.393       .  A
C1025      C1026   1.398       .  A
C1025      N1032   1.432       .  S
C1026      C1027   1.444       .  A
C1026      H1031   1.080       .  S
C1027      C1028   1.418       .  A
C1028      N1029   1.426       .  S
N1029      H1033   1.044       .  S
N1029      H1034   1.042       .  S
N1032      H1035   1.046       .  S
N1032      H1036   1.045       .  S
C1037      C1038   1.413       .  A
C1037      C1042   1.399       .  A
C1037      H1044   1.067       .  S
C1038      C1039   1.433       .  A
C1039      C1040   1.403       .  A
C1039      N1046   1.436       .  S
C1040      C1041   1.406       .  A
C1040      H1045   1.083       .  S
C1041      C1042   1.410       .  A
C1042      N1043   1.439       .  S
N1043      H1047   1.045       .  S
N1043      H1048   1.046       .  S
N1046      H1049   1.040       .  S
N1046      H1050   1.045       .  S
C1051      C1052   1.403       .  A
C1051      C1056   1.413       .  A
C1051      H1058   1.083       .  S
C1052      C1053   1.429       .  A
C1053      C1054   1.414       .  A
C1053      N1060   1.431       .  S
C1054      C1055   1.409       .  A
C1054      H1059   1.083       .  S
C1055      C1056   1.430       .  A
C1056      N1057   1.435       .  S
N1057      H1061   1.043       .  S
N1057      H1062   1.046       .  S
N1060      H1063   1.045   1_556  S
N1060      H1064   1.046       .  S
C1065      C1066   1.404       .  A
C1065      C1070   1.405       .  A
C1065      H1072   1.084       .  S
C1066      C1067   1.414       .  A
C1067      C1068   1.401       .  A
C1067      N1074   1.430       .  S
C1068      C1069   1.410       .  A
C1068      H1073   1.084       .  S
C1069      C1070   1.414       .  A
C1070      N1071   1.430       .  S
N1071      H1075   1.044       .  S
N1071      H1076   1.046       .  S
N1074      H1077   1.045       .  S
N1074      H1078   1.045   1_554  S
C1079      C1080   1.396       .  A
C1079      C1084   1.397       .  A
C1079      H1086   1.083       .  S
C1080      C1081   1.406       .  A
C1081      C1082   1.402       .  A
C1081      N1088   1.433       .  S
C1082      C1083   1.410       .  A
C1082      H1087   1.067       .  S
C1083      C1084   1.447       .  A
C1084      N1085   1.440       .  S
N1085      H1089   1.050       .  S
N1085      H1090   1.025       .  S
N1088      H1091   1.046       .  S
N1088      H1092   1.046       .  S
C1093      C1094   1.422       .  A
C1093      C1098   1.411       .  A
C1093      H1100   1.082       .  S
C1094      C1095   1.417       .  A
C1095      C1096   1.402       .  A
C1095      N1102   1.431       .  S
C1096      C1097   1.421       .  A
C1096      H1101   1.083       .  S
C1097      C1098   1.395       .  A
C1098      N1099   1.443       .  S
N1099      H1103   1.044   1_455  S
N1099      H1104   1.042       .  S
N1102      H1105   1.045       .  S
N1102      H1106   1.045       .  S
C1107      C1108   1.419       .  A
C1107      C1112   1.418       .  A
C1107      H1114   1.083       .  S
C1108      C1109   1.398       .  A
C1109      C1110   1.409       .  A
C1109      N1116   1.433       .  S
C1110      C1111   1.438       .  A
C1110      H1115   1.061       .  S
C1111      C1112   1.430       .  A
C1112      N1113   1.432       .  S
N1113      H1117   1.043       .  S
N1113      H1118   1.039       .  S
N1116      H1119   1.046       .  S
N1116      H1120   1.045       .  S
C1121      C1122   1.400       .  A
C1121      C1126   1.399       .  A
C1121      H1128   1.084       .  S
C1122      C1123   1.412       .  A
C1123      C1124   1.404       .  A
C1123      N1130   1.432       .  S
C1124      C1125   1.430       .  A
C1124      H1129   1.083       .  S
C1125      C1126   1.427       .  A
C1126      N1127   1.423       .  S
N1127      H1131   1.046       .  S
N1127      H1132   1.046       .  S
N1130      H1133   1.044       .  S
N1130      H1134   1.045       .  S
C1135      C1136   1.405       .  A
C1135      C1140   1.396       .  A
C1135      H1142   1.083   1_455  S
C1136      C1137   1.401       .  A
C1137      C1138   1.385       .  A
C1137      N1144   1.433       .  S
C1138      C1139   1.416       .  A
C1138      H1143   1.082       .  S
C1139      C1140   1.413       .  A
C1140      N1141   1.433       .  S
N1141      H1145   1.042       .  S
N1141      H1146   1.045       .  S
N1144      H1147   1.046       .  S
N1144      H1148   1.046       .  S
C1149      C1150   1.413       .  A
C1149      C1154   1.409       .  A
C1149      H1156   1.082       .  S
C1150      C1151   1.406       .  A
C1151      C1152   1.392       .  A
C1151      N1158   1.433       .  S
C1152      C1153   1.426       .  A
C1152      H1157   1.077       .  S
C1153      C1154   1.423       .  A
C1154      N1155   1.433       .  S
N1155      H1159   1.045       .  S
N1155      H1160   1.044       .  S
N1158      H1161   1.045       .  S
N1158      H1162   1.045       .  S
C1163      C1164   1.420       .  A
C1163      C1168   1.402       .  A
C1163      H1170   1.081       .  S
C1164      C1165   1.428       .  A
C1165      C1166   1.428       .  A
C1165      N1172   1.425       .  S
C1166      C1167   1.411       .  A
C1166      H1171   1.083       .  S
C1167      C1168   1.417       .  A
C1168      N1169   1.434       .  S
N1169      H1173   1.046       .  S
N1169      H1174   1.045       .  S
N1172      H1175   1.044       .  S
N1172      H1176   1.045       .  S
C1177      C1178   1.396       .  A
C1177      C1182   1.410       .  A
C1177      H1184   1.077       .  S
C1178      C1179   1.448       .  A
C1179      C1180   1.411       .  A
C1179      N1186   1.432       .  S
C1180      C1181   1.389       .  A
C1180      H1185   1.083       .  S
C1181      C1182   1.411       .  A
C1182      N1183   1.423   1_556  S
N1183      H1187   1.045       .  S
N1183      H1188   1.046       .  S
N1186      H1189   1.045       .  S
N1186      H1190   1.045       .  S
C1191      C1192   1.406       .  A
C1191      C1196   1.415       .  A
C1191      H1198   1.082       .  S
C1192      C1193   1.449       .  A
C1193      C1194   1.372       .  A
C1193      N1200   1.433       .  S
C1194      C1195   1.370       .  A
C1194      H1199   1.086       .  S
C1195      C1196   1.429       .  A
C1196      N1197   1.431       .  S
N1197      H1201   1.045       .  S
N1197      H1202   1.046       .  S
N1200      H1203   1.043       .  S
N1200      H1204   1.045       .  S
C1205      C1206   1.436       .  A
C1205      C1210   1.401       .  A
C1205      H1212   1.074       .  S
C1206      C1207   1.423       .  A
C1207      C1208   1.410   1_554  A
C1207      N1214   1.430   1_554  S
C1208      C1209   1.419   1_556  A
C1208      H1213   1.083       .  S
C1209      C1210   1.393       .  A
C1210      N1211   1.432       .  S
N1211      H1215   1.046       .  S
N1211      H1216   1.046       .  S
N1214      H1217   1.045       .  S
N1214      H1218   1.043       .  S
C1219      C1220   1.413       .  A
C1219      C1224   1.408       .  A
C1219      H1226   1.084       .  S
C1220      C1221   1.408       .  A
C1221      C1222   1.405       .  A
C1221      N1228   1.432       .  S
C1222      C1223   1.405       .  A
C1222      H1227   1.063       .  S
C1223      C1224   1.423       .  A
C1224      N1225   1.432       .  S
N1225      H1229   1.045       .  S
N1225      H1230   1.045       .  S
N1228      H1231   1.045       .  S
N1228      H1232   1.045       .  S
C1233      C1234   1.410       .  A
C1233      C1238   1.384       .  A
C1233      H1240   1.083       .  S
C1234      C1235   1.405       .  A
C1235      C1236   1.411       .  A
C1235      N1242   1.437       .  S
C1236      C1237   1.409       .  A
C1236      H1241   1.084       .  S
C1237      C1238   1.411       .  A
C1238      N1239   1.441       .  S
N1239      H1243   1.046       .  S
N1239      H1244   1.046       .  S
N1242      H1245   1.045   1_565  S
N1242      H1246   1.046   1_565  S
C1247      C1248   1.433       .  A
C1247      C1252   1.386       .  A
C1247      H1254   1.077       .  S
C1248      C1249   1.413       .  A
C1249      C1250   1.420       .  A
C1249      N1256   1.435   1_565  S
C1250      C1251   1.417       .  A
C1250      H1255   1.084   1_565  S
C1251      C1252   1.394       .  A
C1252      N1253   1.434       .  S
N1253      H1257   1.045       .  S
N1253      H1258   1.045       .  S
N1256      H1259   1.045       .  S
N1256      H1260   1.046       .  S
C1261      C1262   1.418       .  A
C1261      C1266   1.418       .  A
C1261      H1268   1.084       .  S
C1262      C1263   1.431       .  A
C1263      C1264   1.396       .  A
C1263      N1270   1.428       .  S
C1264      C1265   1.395       .  A
C1264      H1269   1.086       .  S
C1265      C1266   1.421       .  A
C1266      N1267   1.437       .  S
N1267      H1271   1.045       .  S
N1267      H1272   1.044       .  S
N1270      H1273   1.046       .  S
N1270      H1274   1.046       .  S
C1275      C1276   1.410       .  A
C1275      C1280   1.424       .  A
C1275      H1282   1.083       .  S
C1276      C1277   1.426       .  A
C1277      C1278   1.410       .  A
C1277      N1284   1.434       .  S
C1278      C1279   1.423       .  A
C1278      H1283   1.084       .  S
C1279      C1280   1.430       .  A
C1280      N1281   1.434       .  S
N1281      H1285   1.042       .  S
N1281      H1286   1.047       .  S
N1284      H1287   1.045       .  S
N1284      H1288   1.041       .  S
C1289      C1290   1.408       .  A
C1289      C1294   1.425       .  A
C1289      H1296   1.081       .  S
C1290      C1291   1.427       .  A
C1291      C1292   1.415       .  A
C1291      N1298   1.434       .  S
C1292      C1293   1.412       .  A
C1292      H1297   1.083       .  S
C1293      C1294   1.419       .  A
C1294      N1295   1.437       .  S
N1295      H1299   1.045       .  S
N1295      H1300   1.045       .  S
N1298      H1301   1.045       .  S
N1298      H1302   1.046       .  S
C1303      C1304   1.415       .  A
C1303      C1308   1.391       .  A
C1303      H1310   1.084       .  S
C1304      C1305   1.401       .  A
C1305      C1306   1.398       .  A
C1305      N1312   1.428       .  S
C1306      C1307   1.401       .  A
C1306      H1311   1.080       .  S
C1307      C1308   1.413       .  A
C1308      N1309   1.433       .  S
N1309      H1313   1.045   1_556  S
N1309      H1314   1.045       .  S
N1312      H1315   1.045       .  S
N1312      H1316   1.044       .  S
C1317      C1318   1.395       .  A
C1317      C1322   1.388       .  A
C1317      H1324   1.084       .  S
C1318      C1319   1.395       .  A
C1319      C1320   1.387       .  A
C1319      N1326   1.435       .  S
C1320      C1321   1.421       .  A
C1320      H1325   1.058       .  S
C1321      C1322   1.431       .  A
C1322      N1323   1.435       .  S
N1323      H1327   1.046       .  S
N1323      H1328   1.046       .  S
N1326      H1329   1.045       .  S
N1326      H1330   1.046       .  S
C1331      C1332   1.376       .  A
C1331      C1336   1.386       .  A
C1331      H1338   1.085       .  S
C1332      C1333   1.430       .  A
C1333      C1334   1.420       .  A
C1333      N1340   1.438   1_565  S
C1334      C1335   1.405       .  A
C1334      H1339   1.083   1_565  S
C1335      C1336   1.446       .  A
C1336      N1337   1.434       .  S
N1337      H1341   1.046       .  S
N1337      H1342   1.044       .  S
N1340      H1343   1.044       .  S
N1340      H1344   1.046       .  S
C1345      C1346   1.408       .  A
C1345      C1350   1.407       .  A
C1345      H1352   1.081       .  S
C1346      C1347   1.456       .  A
C1347      C1348   1.409       .  A
C1347      N1354   1.430       .  S
C1348      C1349   1.387       .  A
C1348      H1353   1.084       .  S
C1349      C1350   1.427       .  A
C1350      N1351   1.434       .  S
N1351      H1355   1.046   1_545  S
N1351      H1356   1.046       .  S
N1354      H1357   1.046       .  S
N1354      H1358   1.046       .  S
C1359      C1360   1.401       .  A
C1359      C1364   1.391       .  A
C1359      H1366   1.068       .  S
C1360      C1361   1.430       .  A
C1361      C1362   1.424       .  A
C1361      N1368   1.431       .  S
C1362      C1363   1.414       .  A
C1362      H1367   1.083       .  S
C1363      C1364   1.423       .  A
C1364      N1365   1.435       .  S
N1365      H1369   1.040       .  S
N1365      H1370   1.045       .  S
N1368      H1371   1.046       .  S
N1368      H1372   1.045       .  S
C1373      C1374   1.402       .  A
C1373      C1378   1.398       .  A
C1373      H1380   1.084       .  S
C1374      C1375   1.392       .  A
C1375      C1376   1.390       .  A
C1375      N1382   1.438       .  S
C1376      C1377   1.425       .  A
C1376      H1381   1.082       .  S
C1377      C1378   1.419       .  A
C1378      N1379   1.431       .  S
N1379      H1383   1.046       .  S
N1379      H1384   1.044   1_565  S
N1382      H1385   1.046       .  S
N1382      H1386   1.046       .  S
C1387      C1388   1.412       .  A
C1387      C1392   1.404       .  A
C1387      H1394   1.083       .  S
C1388      C1389   1.406       .  A
C1389      C1390   1.394       .  A
C1389      N1396   1.432       .  S
C1390      C1391   1.422       .  A
C1390      H1395   1.083       .  S
C1391      C1392   1.406       .  A
C1392      N1393   1.438       .  S
N1393      H1397   1.046       .  S
N1393      H1398   1.045       .  S
N1396      H1399   1.045       .  S
N1396      H1400   1.044       .  S
C1401      C1402   1.419       .  A
C1401      C1406   1.415       .  A
C1401      H1408   1.084       .  S
C1402      C1403   1.409       .  A
C1403      C1404   1.413       .  A
C1403      N1410   1.433       .  S
C1404      C1405   1.429       .  A
C1404      H1409   1.083       .  S
C1405      C1406   1.404       .  A
C1406      N1407   1.432       .  S
N1407      H1411   1.045       .  S
N1407      H1412   1.045       .  S
N1410      H1413   1.044       .  S
N1410      H1414   1.045       .  S
C1415      C1416   1.431       .  A
C1415      C1420   1.395       .  A
C1415      H1422   1.073       .  S
C1416      C1417   1.424       .  A
C1417      C1418   1.410       .  A
C1417      N1424   1.430       .  S
C1418      C1419   1.409       .  A
C1418      H1423   1.084       .  S
C1419      C1420   1.393       .  A
C1420      N1421   1.433       .  S
N1421      H1425   1.046       .  S
N1421      H1426   1.046       .  S
N1424      H1427   1.046       .  S
N1424      H1428   1.046       .  S
C1429      C1430   1.382       .  A
C1429      C1434   1.395       .  A
C1429      H1436   1.085       .  S
C1430      C1431   1.418       .  A
C1431      C1432   1.403       .  A
C1431      N1438   1.428       .  S
C1432      C1433   1.409       .  A
C1432      H1437   1.082       .  S
C1433      C1434   1.442       .  A
C1434      N1435   1.431       .  S
N1435      H1439   1.043       .  S
N1435      H1440   1.044       .  S
N1438      H1441   1.045       .  S
N1438      H1442   1.045       .  S
C1443      C1444   1.397       .  A
C1443      C1448   1.400       .  A
C1443      H1450   1.080       .  S
C1444      C1445   1.396       .  A
C1445      C1446   1.381       .  A
C1445      N1452   1.436       .  S
C1446      C1447   1.415       .  A
C1446      H1451   1.058       .  S
C1447      C1448   1.420       .  A
C1448      N1449   1.432       .  S
N1449      H1453   1.040       .  S
N1449      H1454   1.046       .  S
N1452      H1455   1.046       .  S
N1452      H1456   1.045       .  S
C1457      C1458   1.434       .  A
C1457      C1462   1.393       .  A
C1457      H1464   1.072       .  S
C1458      C1459   1.421       .  A
C1459      C1460   1.416       .  A
C1459      N1466   1.429       .  S
C1460      C1461   1.413       .  A
C1460      H1465   1.084       .  S
C1461      C1462   1.391       .  A
C1462      N1463   1.434       .  S
N1463      H1467   1.046       .  S
N1463      H1468   1.046       .  S
N1466      H1469   1.045       .  S
N1466      H1470   1.046       .  S
C1471      C1472   1.421       .  A
C1471      C1476   1.419       .  A
C1471      H1478   1.073       .  S
C1472      C1473   1.435       .  A
C1473      C1474   1.408       .  A
C1473      N1480   1.435       .  S
C1474      C1475   1.413       .  A
C1474      H1479   1.083       .  S
C1475      C1476   1.406       .  A
C1476      N1477   1.435       .  S
N1477      H1481   1.045       .  S
N1477      H1482   1.041       .  S
N1480      H1483   1.038       .  S
N1480      H1484   1.044       .  S
C1485      C1486   1.438       .  A
C1485      C1490   1.385       .  A
C1485      H1492   1.082       .  S
C1486      C1487   1.407       .  A
C1487      C1488   1.416       .  A
C1487      N1494   1.432       .  S
C1488      C1489   1.415       .  A
C1488      H1493   1.083       .  S
C1489      C1490   1.388       .  A
C1490      N1491   1.433       .  S
N1491      H1495   1.045       .  S
N1491      H1496   1.045       .  S
N1494      H1497   1.045       .  S
N1494      H1498   1.045       .  S
C1499      C1500   1.433       .  A
C1499      C1504   1.411       .  A
C1499      H1506   1.080       .  S
C1500      C1501   1.403       .  A
C1501      C1502   1.419       .  A
C1501      N1508   1.437       .  S
C1502      C1503   1.424       .  A
C1502      H1507   1.083       .  S
C1503      C1504   1.401       .  A
C1504      N1505   1.432       .  S
N1505      H1509   1.045       .  S
N1505      H1510   1.044       .  S
N1508      H1511   1.046       .  S
N1508      H1512   1.045       .  S
C1513      C1514   1.425       .  A
C1513      C1518   1.386       .  A
C1513      H1520   1.081       .  S
C1514      C1515   1.426       .  A
C1515      C1516   1.399       .  A
C1515      N1522   1.430       .  S
C1516      C1517   1.405       .  A
C1516      H1521   1.085       .  S
C1517      C1518   1.389       .  A
C1518      N1519   1.433       .  S
N1519      H1523   1.046       .  S
N1519      H1524   1.046       .  S
N1522      H1525   1.045       .  S
N1522      H1526   1.039       .  S
C1527      C1528   1.420       .  A
C1527      C1532   1.414       .  A
C1527      H1534   1.083       .  S
C1528      C1529   1.404       .  A
C1529      C1530   1.410       .  A
C1529      N1536   1.436       .  S
C1530      C1531   1.425       .  A
C1530      H1535   1.083       .  S
C1531      C1532   1.401       .  A
C1532      N1533   1.437       .  S
N1533      H1537   1.046       .  S
N1533      H1538   1.045       .  S
N1536      H1539   1.044       .  S
N1536      H1540   1.045       .  S
C1541      C1542   1.420       .  A
C1541      C1546   1.402       .  A
C1541      H1548   1.083       .  S
C1542      C1543   1.392       .  A
C1543      C1544   1.407       .  A
C1543      N1550   1.431       .  S
C1544      C1545   1.441       .  A
C1544      H1549   1.078       .  S
C1545      C1546   1.409       .  A
C1546      N1547   1.424       .  S
N1547      H1551   1.038       .  S
N1547      H1552   1.046       .  S
N1550      H1553   1.046       .  S
N1550      H1554   1.046       .  S
C1555      C1556   1.407       .  A
C1555      C1560   1.402       .  A
C1555      H1562   1.084       .  S
C1556      C1557   1.401       .  A
C1557      C1558   1.376       .  A
C1557      N1564   1.434       .  S
C1558      C1559   1.420       .  A
C1558      H1563   1.082       .  S
C1559      C1560   1.417       .  A
C1560      N1561   1.434       .  S
N1561      H1565   1.042       .  S
N1561      H1566   1.045       .  S
N1564      H1567   1.046       .  S
N1564      H1568   1.044       .  S
C1569      C1570   1.421       .  A
C1569      C1574   1.407       .  A
C1569      H1576   1.082       .  S
C1570      C1571   1.425       .  A
C1571      C1572   1.396       .  A
C1571      N1578   1.435       .  S
C1572      C1573   1.402       .  A
C1572      H1577   1.083   1_554  S
C1573      C1574   1.402       .  A
C1574      N1575   1.437       .  S
N1575      H1579   1.046       .  S
N1575      H1580   1.045       .  S
N1578      H1581   1.045       .  S
N1578      H1582   1.046   1_554  S
C1583      C1584   1.417       .  A
C1583      C1588   1.388       .  A
C1583      H1590   1.083       .  S
C1584      C1585   1.412       .  A
C1585      C1586   1.411       .  A
C1585      N1592   1.440       .  S
C1586      C1587   1.409       .  A
C1586      H1591   1.082       .  S
C1587      C1588   1.417       .  A
C1588      N1589   1.435       .  S
N1589      H1593   1.044       .  S
N1589      H1594   1.046       .  S
N1592      H1595   1.045       .  S
N1592      H1596   1.045       .  S
C1597      C1598   1.412       .  A
C1597      C1602   1.414       .  A
C1597      H1604   1.084       .  S
C1598      C1599   1.398       .  A
C1599      C1600   1.412       .  A
C1599      N1606   1.433       .  S
C1600      C1601   1.430       .  A
C1600      H1605   1.057       .  S
C1601      C1602   1.421       .  A
C1602      N1603   1.431       .  S
N1603      H1607   1.045       .  S
N1603      H1608   1.045       .  S
N1606      H1609   1.046       .  S
N1606      H1610   1.045       .  S
C1611      C1612   1.415       .  A
C1611      C1616   1.411       .  A
C1611      H1618   1.069       .  S
C1612      C1613   1.439       .  A
C1613      C1614   1.407       .  A
C1613      N1620   1.438       .  S
C1614      C1615   1.406       .  A
C1614      H1619   1.083       .  S
C1615      C1616   1.409       .  A
C1616      N1617   1.438       .  S
N1617      H1621   1.040       .  S
N1617      H1622   1.043       .  S
N1620      H1623   1.040       .  S
N1620      H1624   1.046       .  S
C1625      C1626   1.395       .  A
C1625      C1630   1.408       .  A
C1625      H1632   1.081       .  S
C1626      C1627   1.435       .  A
C1627      C1628   1.410       .  A
C1627      N1634   1.438       .  S
C1628      C1629   1.401       .  A
C1628      H1633   1.083       .  S
C1629      C1630   1.427       .  A
C1630      N1631   1.433       .  S
N1631      H1635   1.046       .  S
N1631      H1636   1.037       .  S
N1634      H1637   1.045       .  S
N1634      H1638   1.046       .  S
C1639      C1640   1.431       .  A
C1639      C1644   1.383       .  A
C1639      H1646   1.084       .  S
C1640      C1641   1.408       .  A
C1641      C1642   1.416       .  A
C1641      N1648   1.435   1_556  S
C1642      C1643   1.426       .  A
C1642      H1647   1.083   1_556  S
C1643      C1644   1.400       .  A
C1644      N1645   1.433       .  S
N1645      H1649   1.045       .  S
N1645      H1650   1.046       .  S
N1648      H1651   1.045       .  S
N1648      H1652   1.045       .  S
C1653      C1654   1.421       .  A
C1653      C1658   1.411       .  A
C1653      H1660   1.082       .  S
C1654      C1655   1.430       .  A
C1655      C1656   1.419       .  A
C1655      N1662   1.426       .  S
C1656      C1657   1.402       .  A
C1656      H1661   1.083       .  S
C1657      C1658   1.419       .  A
C1658      N1659   1.436       .  S
N1659      H1663   1.044       .  S
N1659      H1664   1.044       .  S
N1662      H1665   1.046       .  S
N1662      H1666   1.046       .  S
C1667      C1668   1.411       .  A
C1667      C1672   1.403       .  A
C1667      H1674   1.073       .  S
C1668      C1669   1.446       .  A
C1669      C1670   1.399       .  A
C1669      N1676   1.433       .  S
C1670      C1671   1.384       .  A
C1670      H1675   1.084       .  S
C1671      C1672   1.399       .  A
C1672      N1673   1.430       .  S
N1673      H1677   1.045       .  S
N1673      H1678   1.046       .  S
N1676      H1679   1.045       .  S
N1676      H1680   1.043       .  S
C1681      C1682   1.418       .  A
C1681      C1686   1.404       .  A
C1681      H1688   1.084       .  S
C1682      C1683   1.412       .  A
C1683      C1684   1.412       .  A
C1683      N1690   1.436       .  S
C1684      C1685   1.409       .  A
C1684      H1689   1.084       .  S
C1685      C1686   1.419       .  A
C1686      N1687   1.440       .  S
N1687      H1691   1.046       .  S
N1687      H1692   1.043       .  S
N1690      H1693   1.043       .  S
N1690      H1694   1.045       .  S
C1695      C1696   1.395       .  A
C1695      C1700   1.420       .  A
C1695      H1702   1.084       .  S
C1696      C1697   1.434       .  A
C1697      C1698   1.413       .  A
C1697      N1704   1.431       .  S
C1698      C1699   1.398       .  A
C1698      H1703   1.083       .  S
C1699      C1700   1.429       .  A
C1700      N1701   1.438       .  S
N1701      H1705   1.045       .  S
N1701      H1706   1.045       .  S
N1704      H1707   1.045       .  S
N1704      H1708   1.045       .  S
C1709      C1710   1.421       .  A
C1709      C1714   1.400       .  A
C1709      H1716   1.082       .  S
C1710      C1711   1.408       .  A
C1711      C1712   1.423       .  A
C1711      N1718   1.438   1_554  S
C1712      C1713   1.419       .  A
C1712      H1717   1.084   1_554  S
C1713      C1714   1.414       .  A
C1714      N1715   1.441       .  S
N1715      H1719   1.046       .  S
N1715      H1720   1.042       .  S
N1718      H1721   1.045       .  S
N1718      H1722   1.046       .  S
C1723      C1724   1.426   1_655  A
C1723      C1728   1.405       .  A
C1723      H1730   1.083       .  S
C1724      C1725   1.401       .  A
C1725      C1726   1.398       .  A
C1725      N1732   1.432       .  S
C1726      C1727   1.432       .  A
C1726      H1731   1.081       .  S
C1727      C1728   1.406   1_455  A
C1728      N1729   1.433       .  S
N1729      H1733   1.043       .  S
N1729      H1734   1.045       .  S
N1732      H1735   1.044       .  S
N1732      H1736   1.045       .  S
C1737      C1738   1.398       .  A
C1737      C1742   1.409       .  A
C1737      H1744   1.081       .  S
C1738      C1739   1.433       .  A
C1739      C1740   1.399       .  A
C1739      N1746   1.434       .  S
C1740      C1741   1.396       .  A
C1740      H1745   1.084       .  S
C1741      C1742   1.421       .  A
C1742      N1743   1.432       .  S
N1743      H1747   1.045       .  S
N1743      H1748   1.045       .  S
N1746      H1749   1.045       .  S
N1746      H1750   1.045       .  S
C1751      C1752   1.422       .  A
C1751      C1756   1.411       .  A
C1751      H1758   1.084       .  S
C1752      C1753   1.425       .  A
C1753      C1754   1.409       .  A
C1753      N1760   1.432       .  S
C1754      C1755   1.401       .  A
C1754      H1759   1.085       .  S
C1755      C1756   1.414       .  A
C1756      N1757   1.432   1_655  S
N1757      H1761   1.045   1_455  S
N1757      H1762   1.046       .  S
N1760      H1763   1.046   1_655  S
N1760      H1764   1.046       .  S
C1765      C1766   1.433       .  A
C1765      C1770   1.383       .  A
C1765      H1772   1.076       .  S
C1766      C1767   1.412       .  A
C1767      C1768   1.415       .  A
C1767      N1774   1.424       .  S
C1768      C1769   1.414       .  A
C1768      H1773   1.085       .  S
C1769      C1770   1.387       .  A
C1770      N1771   1.434       .  S
N1771      H1775   1.045       .  S
N1771      H1776   1.045       .  S
N1774      H1777   1.046       .  S
N1774      H1778   1.043       .  S
C1779      C1780   1.433       .  A
C1779      C1784   1.420       .  A
C1779      H1786   1.069       .  S
C1780      C1781   1.419       .  A
C1781      C1782   1.414       .  A
C1781      N1788   1.431       .  S
C1782      C1783   1.416       .  A
C1782      H1787   1.084       .  S
C1783      C1784   1.405       .  A
C1784      N1785   1.437       .  S
N1785      H1789   1.045       .  S
N1785      H1790   1.045       .  S
N1788      H1791   1.045       .  S
N1788      H1792   1.045       .  S
C1793      C1794   1.421       .  A
C1793      C1798   1.405       .  A
C1793      H1800   1.083       .  S
C1794      C1795   1.414       .  A
C1795      C1796   1.410       .  A
C1795      N1802   1.430       .  S
C1796      C1797   1.402       .  A
C1796      H1801   1.075       .  S
C1797      C1798   1.412       .  A
C1798      N1799   1.432       .  S
N1799      H1803   1.045   1_655  S
N1799      H1804   1.046       .  S
N1802      H1805   1.045       .  S
N1802      H1806   1.046       .  S
C1807      C1808   1.385       .  A
C1807      C1812   1.399       .  A
C1807      H1814   1.084       .  S
C1808      C1809   1.435       .  A
C1809      C1810   1.408       .  A
C1809      N1816   1.433   1_455  S
C1810      C1811   1.403       .  A
C1810      H1815   1.076   1_455  S
C1811      C1812   1.446       .  A
C1812      N1813   1.434       .  S
N1813      H1817   1.044       .  S
N1813      H1818   1.045       .  S
N1816      H1819   1.045       .  S
N1816      H1820   1.044       .  S
C1821      C1822   1.423       .  A
C1821      C1826   1.411       .  A
C1821      H1828   1.083   1_455  S
C1822      C1823   1.409       .  A
C1823      C1824   1.404       .  A
C1823      N1830   1.432       .  S
C1824      C1825   1.427       .  A
C1824      H1829   1.083       .  S
C1825      C1826   1.407       .  A
C1826      N1827   1.438       .  S
N1827      H1831   1.045   1_455  S
N1827      H1832   1.045   1_455  S
N1830      H1833   1.045       .  S
N1830      H1834   1.046       .  S
C1835      C1836   1.407       .  A
C1835      C1840   1.391       .  A
C1835      H1842   1.083       .  S
C1836      C1837   1.408       .  A
C1837      C1838   1.406       .  A
C1837      N1844   1.436       .  S
C1838      C1839   1.423       .  A
C1838      H1843   1.083       .  S
C1839      C1840   1.406       .  A
C1840      N1841   1.435       .  S
N1841      H1845   1.046       .  S
N1841      H1846   1.044       .  S
N1844      H1847   1.046       .  S
N1844      H1848   1.045       .  S
C1849      C1850   1.428       .  A
C1849      C1854   1.410       .  A
C1849      H1856   1.080       .  S
C1850      C1851   1.402       .  A
C1851      C1852   1.417       .  A
C1851      N1858   1.436       .  S
C1852      C1853   1.420       .  A
C1852      H1857   1.083       .  S
C1853      C1854   1.415       .  A
C1854      N1855   1.429       .  S
N1855      H1859   1.045       .  S
N1855      H1860   1.042       .  S
N1858      H1861   1.046       .  S
N1858      H1862   1.045       .  S
C1863      C1864   1.403       .  A
C1863      C1868   1.403       .  A
C1863      H1870   1.085       .  S
C1864      C1865   1.397       .  A
C1865      C1866   1.412       .  A
C1865      N1872   1.438       .  S
C1866      C1867   1.428       .  A
C1866      H1871   1.063       .  S
C1867      C1868   1.427       .  A
C1868      N1869   1.433       .  S
N1869      H1873   1.046       .  S
N1869      H1874   1.042       .  S
N1872      H1875   1.045       .  S
N1872      H1876   1.046       .  S
C1877      C1878   1.380       .  A
C1877      C1882   1.395       .  A
C1877      H1884   1.085       .  S
C1878      C1879   1.425       .  A
C1879      C1880   1.411       .  A
C1879      N1886   1.438       .  S
C1880      C1881   1.404       .  A
C1880      H1885   1.082       .  S
C1881      C1882   1.446       .  A
C1882      N1883   1.433       .  S
N1883      H1887   1.045       .  S
N1883      H1888   1.045       .  S
N1886      H1889   1.045       .  S
N1886      H1890   1.046       .  S
C1891      C1892   1.398       .  A
C1891      C1896   1.399       .  A
C1891      H1898   1.084       .  S
C1892      C1893   1.415       .  A
C1893      C1894   1.393       .  A
C1893      N1900   1.434       .  S
C1894      C1895   1.408       .  A
C1894      H1899   1.066       .  S
C1895      C1896   1.436       .  A
C1896      N1897   1.433       .  S
N1897      H1901   1.046       .  S
N1897      H1902   1.046       .  S
N1900      H1903   1.045       .  S
N1900      H1904   1.045       .  S
C1905      C1906   1.388       .  A
C1905      C1910   1.399       .  A
C1905      H1912   1.084       .  S
C1906      C1907   1.420       .  A
C1907      C1908   1.407       .  A
C1907      N1914   1.439       .  S
C1908      C1909   1.410       .  A
C1908      H1913   1.074       .  S
C1909      C1910   1.441       .  A
C1910      N1911   1.431       .  S
N1911      H1915   1.045       .  S
N1911      H1916   1.044       .  S
N1914      H1917   1.046       .  S
N1914      H1918   1.046       .  S
C1919      C1920   1.420       .  A
C1919      C1924   1.424       .  A
C1919      H1926   1.082       .  S
C1920      C1921   1.401       .  A
C1921      C1922   1.395       .  A
C1921      N1928   1.433       .  S
C1922      C1923   1.435       .  A
C1922      H1927   1.075       .  S
C1923      C1924   1.417       .  A
C1924      N1925   1.434       .  S
N1925      H1929   1.045       .  S
N1925      H1930   1.042       .  S
N1928      H1931   1.044       .  S
N1928      H1932   1.046       .  S
C1933      C1934   1.409       .  A
C1933      C1938   1.392       .  A
C1933      H1940   1.083       .  S
C1934      C1935   1.412       .  A
C1935      C1936   1.398       .  A
C1935      N1942   1.437       .  S
C1936      C1937   1.404       .  A
C1936      H1941   1.084   1_455  S
C1937      C1938   1.414       .  A
C1938      N1939   1.438       .  S
N1939      H1943   1.046       .  S
N1939      H1944   1.042       .  S
N1942      H1945   1.045       .  S
N1942      H1946   1.045       .  S
C1947      C1948   1.400       .  A
C1947      C1952   1.393       .  A
C1947      H1954   1.083       .  S
C1948      C1949   1.411       .  A
C1949      C1950   1.387       .  A
C1949      N1956   1.439       .  S
C1950      C1951   1.411       .  A
C1950      H1955   1.083       .  S
C1951      C1952   1.423       .  A
C1952      N1953   1.438       .  S
N1953      H1957   1.045       .  S
N1953      H1958   1.043       .  S
N1956      H1959   1.045   1_545  S
N1956      H1960   1.046       .  S
C1961      C1962   1.410       .  A
C1961      C1966   1.423       .  A
C1961      H1968   1.084       .  S
C1962      C1963   1.406       .  A
C1963      C1964   1.396       .  A
C1963      N1970   1.442       .  S
C1964      C1965   1.426       .  A
C1964      H1969   1.077       .  S
C1965      C1966   1.419       .  A
C1966      N1967   1.435   1_455  S
N1967      H1971   1.045       .  S
N1967      H1972   1.045       .  S
N1970      H1973   1.043       .  S
N1970      H1974   1.046       .  S
C1975      C1976   1.402       .  A
C1975      C1980   1.422       .  A
C1975      H1982   1.080   1_545  S
C1976      C1977   1.449       .  A
C1977      C1978   1.396       .  A
C1977      N1984   1.433       .  S
C1978      C1979   1.380       .  A
C1978      H1983   1.084       .  S
C1979      C1980   1.434       .  A
C1980      N1981   1.432   1_545  S
N1981      H1985   1.046       .  S
N1981      H1986   1.046       .  S
N1984      H1987   1.043       .  S
N1984      H1988   1.044       .  S
C1989      C1990   1.405       .  A
C1989      C1994   1.419       .  A
C1989      H1996   1.071       .  S
C1990      C1991   1.423       .  A
C1991      C1992   1.414       .  A
C1991      N1998   1.434       .  S
C1992      C1993   1.417       .  A
C1992      H1997   1.083       .  S
C1993      C1994   1.415       .  A
C1994      N1995   1.437       .  S
N1995      H1999   1.045       .  S
N1995      H2000   1.046       .  S
N1998      H2001   1.045       .  S
N1998      H2002   1.044       .  S
C2003      C2004   1.408       .  A
C2003      C2008   1.405       .  A
C2003      H2010   1.084   1_565  S
C2004      C2005   1.426       .  A
C2005      C2006   1.414       .  A
C2005      N2012   1.436       .  S
C2006      C2007   1.401       .  A
C2006      H2011   1.083       .  S
C2007      C2008   1.431       .  A
C2008      N2009   1.432   1_565  S
N2009      H2013   1.045       .  S
N2009      H2014   1.043   1_545  S
N2012      H2015   1.046       .  S
N2012      H2016   1.045   1_565  S
C2017      C2018   1.424       .  A
C2017      C2022   1.410       .  A
C2017      H2024   1.083       .  S
C2018      C2019   1.407       .  A
C2019      C2020   1.414       .  A
C2019      N2026   1.436       .  S
C2020      C2021   1.417       .  A
C2020      H2025   1.079       .  S
C2021      C2022   1.412       .  A
C2022      N2023   1.438       .  S
N2023      H2027   1.046       .  S
N2023      H2028   1.043       .  S
N2026      H2029   1.045       .  S
N2026      H2030   1.046       .  S
C2031      C2032   1.414       .  A
C2031      C2036   1.413       .  A
C2031      H2038   1.083       .  S
C2032      C2033   1.411       .  A
C2033      C2034   1.416       .  A
C2033      N2040   1.437       .  S
C2034      C2035   1.427       .  A
C2034      H2039   1.083       .  S
C2035      C2036   1.404       .  A
C2036      N2037   1.437   1_655  S
N2037      H2041   1.046       .  S
N2037      H2042   1.045       .  S
N2040      H2043   1.045       .  S
N2040      H2044   1.045       .  S
C2045      C2046   1.402       .  A
C2045      C2050   1.406       .  A
C2045      H2052   1.081       .  S
C2046      C2047   1.437       .  A
C2047      C2048   1.406       .  A
C2047      N2054   1.433       .  S
C2048      C2049   1.408       .  A
C2048      H2053   1.083       .  S
C2049      C2050   1.420       .  A
C2050      N2051   1.437       .  S
N2051      H2055   1.045       .  S
N2051      H2056   1.047       .  S
N2054      H2057   1.045       .  S
N2054      H2058   1.045       .  S
C2059      C2060   1.405       .  A
C2059      C2064   1.413       .  A
C2059      H2066   1.084       .  S
C2060      C2061   1.430       .  A
C2061      C2062   1.418       .  A
C2061      N2068   1.438       .  S
C2062      C2063   1.417       .  A
C2062      H2067   1.084       .  S
C2063      C2064   1.426       .  A
C2064      N2065   1.432       .  S
N2065      H2069   1.044       .  S
N2065      H2070   1.045       .  S
N2068      H2071   1.043       .  S
N2068      H2072   1.046       .  S
C2073      C2074   1.376       .  A
C2073      C2078   1.400       .  A
C2073      H2080   1.084       .  S
C2074      C2075   1.423       .  A
C2075      C2076   1.410       .  A
C2075      N2082   1.434       .  S
C2076      C2077   1.399       .  A
C2076      H2081   1.081       .  S
C2077      C2078   1.455       .  A
C2078      N2079   1.431       .  S
N2079      H2083   1.046       .  S
N2079      H2084   1.043       .  S
N2082      H2085   1.046       .  S
N2082      H2086   1.045       .  S
C2087      C2088   1.374       .  A
C2087      C2092   1.389       .  A
C2087      H2094   1.085       .  S
C2088      C2089   1.426       .  A
C2089      C2090   1.408       .  A
C2089      N2096   1.433       .  S
C2090      C2091   1.403       .  A
C2090      H2095   1.082       .  S
C2091      C2092   1.451       .  A
C2092      N2093   1.435       .  S
N2093      H2097   1.044       .  S
N2093      H2098   1.043       .  S
N2096      H2099   1.046       .  S
N2096      H2100   1.043       .  S
C2101      C2102   1.383       .  A
C2101      C2106   1.400       .  A
C2101      H2108   1.084       .  S
C2102      C2103   1.404       .  A
C2103      C2104   1.401       .  A
C2103      N2110   1.430       .  S
C2104      C2105   1.414       .  A
C2104      H2109   1.069       .  S
C2105      C2106   1.444       .  A
C2106      N2107   1.429       .  S
N2107      H2111   1.043       .  S
N2107      H2112   1.041       .  S
N2110      H2113   1.043       .  S
N2110      H2114   1.046       .  S
C2115      C2116   1.406       .  A
C2115      C2120   1.403       .  A
C2115      H2122   1.083       .  S
C2116      C2117   1.407       .  A
C2117      C2118   1.390       .  A
C2117      N2124   1.434       .  S
C2118      C2119   1.397       .  A
C2118      H2123   1.065       .  S
C2119      C2120   1.425       .  A
C2120      N2121   1.437       .  S
N2121      H2125   1.045       .  S
N2121      H2126   1.045       .  S
N2124      H2127   1.046       .  S
N2124      H2128   1.046       .  S
C2129      C2130   1.374       .  A
C2129      C2134   1.387       .  A
C2129      H2136   1.086       .  S
C2130      C2131   1.426   1_565  A
C2131      C2132   1.424   1_545  A
C2131      N2138   1.431       .  S
C2132      C2133   1.410       .  A
C2132      H2137   1.081   1_565  S
C2133      C2134   1.450       .  A
C2134      N2135   1.435       .  S
N2135      H2139   1.044       .  S
N2135      H2140   1.042       .  S
N2138      H2141   1.045       .  S
N2138      H2142   1.045       .  S
C2143      C2144   1.418       .  A
C2143      C2148   1.417       .  A
C2143      H2150   1.083       .  S
C2144      C2145   1.388       .  A
C2145      C2146   1.398       .  A
C2145      N2152   1.434       .  S
C2146      C2147   1.441       .  A
C2146      H2151   1.068       .  S
C2147      C2148   1.417       .  A
C2148      N2149   1.429       .  S
N2149      H2153   1.045   1_545  S
N2149      H2154   1.045       .  S
N2152      H2155   1.046       .  S
N2152      H2156   1.046       .  S
C2157      C2158   1.406       .  A
C2157      C2162   1.403       .  A
C2157      H2164   1.083       .  S
C2158      C2159   1.404       .  A
C2159      C2160   1.411       .  A
C2159      N2166   1.438       .  S
C2160      C2161   1.434       .  A
C2160      H2165   1.068       .  S
C2161      C2162   1.416       .  A
C2162      N2163   1.429       .  S
N2163      H2167   1.041       .  S
N2163      H2168   1.040       .  S
N2166      H2169   1.044       .  S
N2166      H2170   1.046       .  S
C2171      C2172   1.378       .  A
C2171      C2176   1.389       .  A
C2171      H2178   1.085       .  S
C2172      C2173   1.422       .  A
C2173      C2174   1.408       .  A
C2173      N2180   1.437   1_565  S
C2174      C2175   1.406       .  A
C2174      H2179   1.081       .  S
C2175      C2176   1.447       .  A
C2176      N2177   1.435       .  S
N2177      H2181   1.045       .  S
N2177      H2182   1.044       .  S
N2180      H2183   1.043       .  S
N2180      H2184   1.044       .  S
C2185      C2186   1.398       .  A
C2185      C2190   1.399       .  A
C2185      H2192   1.084       .  S
C2186      C2187   1.414       .  A
C2187      C2188   1.399       .  A
C2187      N2194   1.439       .  S
C2188      C2189   1.401       .  A
C2188      H2193   1.064       .  S
C2189      C2190   1.434       .  A
C2190      N2191   1.432       .  S
N2191      H2195   1.045       .  S
N2191      H2196   1.046       .  S
N2194      H2197   1.046       .  S
N2194      H2198   1.046       .  S
C2199      C2200   1.382       .  A
C2199      C2204   1.400       .  A
C2199      H2206   1.085       .  S
C2200      C2201   1.415       .  A
C2201      C2202   1.413       .  A
C2201      N2208   1.433       .  S
C2202      C2203   1.416       .  A
C2202      H2207   1.076       .  S
C2203      C2204   1.451       .  A
C2204      N2205   1.429       .  S
N2205      H2209   1.045       .  S
N2205      H2210   1.046       .  S
N2208      H2211   1.046       .  S
N2208      H2212   1.046       .  S
C2213      C2214   1.428       .  A
C2213      C2218   1.422       .  A
C2213      H2220   1.083   1_455  S
C2214      C2215   1.399       .  A
C2215      C2216   1.404       .  A
C2215      N2222   1.438       .  S
C2216      C2217   1.435       .  A
C2216      H2221   1.081       .  S
C2217      C2218   1.408       .  A
C2218      N2219   1.435   1_455  S
N2219      H2223   1.045       .  S
N2219      H2224   1.045       .  S
N2222      H2225   1.045       .  S
N2222      H2226   1.046       .  S
C2227      C2228   1.434       .  A
C2227      C2232   1.402       .  A
C2227      H2234   1.070       .  S
C2228      C2229   1.412       .  A
C2229      C2230   1.407       .  A
C2229      N2236   1.431   1_655  S
C2230      C2231   1.418       .  A
C2230      H2235   1.083   1_655  S
C2231      C2232   1.390       .  A
C2232      N2233   1.433       .  S
N2233      H2237   1.045       .  S
N2233      H2238   1.045       .  S
N2236      H2239   1.046       .  S
N2236      H2240   1.045       .  S
C2241      C2242   1.403       .  A
C2241      C2246   1.412       .  A
C2241      H2248   1.084       .  S
C2242      C2243   1.420       .  A
C2243      C2244   1.414       .  A
C2243      N2250   1.432       .  S
C2244      C2245   1.421       .  A
C2244      H2249   1.084       .  S
C2245      C2246   1.429       .  A
C2246      N2247   1.437       .  S
N2247      H2251   1.045       .  S
N2247      H2252   1.040       .  S
N2250      H2253   1.046       .  S
N2250      H2254   1.046       .  S
C2255      C2256   1.408       .  A
C2255      C2260   1.406       .  A
C2255      H2262   1.084       .  S
C2256      C2257   1.419       .  A
C2257      C2258   1.419       .  A
C2257      N2264   1.437       .  S
C2258      C2259   1.404       .  A
C2258      H2263   1.083       .  S
C2259      C2260   1.422       .  A
C2260      N2261   1.434       .  S
N2261      H2265   1.045       .  S
N2261      H2266   1.043       .  S
N2264      H2267   1.046   1_655  S
N2264      H2268   1.045       .  S
C2269      C2270   1.389       .  A
C2269      C2274   1.400       .  A
C2269      H2276   1.075       .  S
C2270      C2271   1.394       .  A
C2271      C2272   1.380       .  A
C2271      N2278   1.434       .  S
C2272      C2273   1.426       .  A
C2272      H2277   1.080       .  S
C2273      C2274   1.422       .  A
C2274      N2275   1.427       .  S
N2275      H2279   1.036       .  S
N2275      H2280   1.046       .  S
N2278      H2281   1.046       .  S
N2278      H2282   1.045       .  S
C2283      C2284   1.384       .  A
C2283      C2288   1.391       .  A
C2283      H2290   1.085       .  S
C2284      C2285   1.412       .  A
C2285      C2286   1.418       .  A
C2285      N2292   1.430       .  S
C2286      C2287   1.412       .  A
C2286      H2291   1.081       .  S
C2287      C2288   1.441       .  A
C2288      N2289   1.432       .  S
N2289      H2293   1.045       .  S
N2289      H2294   1.045       .  S
N2292      H2295   1.038   1_455  S
N2292      H2296   1.044   1_455  S
C2297      C2298   1.433       .  A
C2297      C2302   1.382       .  A
C2297      H2304   1.078       .  S
C2298      C2299   1.404       .  A
C2299      C2300   1.410       .  A
C2299      N2306   1.430       .  S
C2300      C2301   1.424       .  A
C2300      H2305   1.084       .  S
C2301      C2302   1.395       .  A
C2302      N2303   1.433       .  S
N2303      H2307   1.045       .  S
N2303      H2308   1.045       .  S
N2306      H2309   1.045       .  S
N2306      H2310   1.046       .  S
C2311      C2312   1.416       .  A
C2311      C2316   1.411       .  A
C2311      H2318   1.083       .  S
C2312      C2313   1.398       .  A
C2313      C2314   1.410       .  A
C2313      N2320   1.432       .  S
C2314      C2315   1.431       .  A
C2314      H2319   1.067       .  S
C2315      C2316   1.416       .  A
C2316      N2317   1.436       .  S
N2317      H2321   1.045       .  S
N2317      H2322   1.046       .  S
N2320      H2323   1.046       .  S
N2320      H2324   1.045       .  S
C2325      C2326   1.406       .  A
C2325      C2330   1.408       .  A
C2325      H2332   1.082       .  S
C2326      C2327   1.407       .  A
C2327      C2328   1.421       .  A
C2327      N2334   1.437       .  S
C2328      C2329   1.431       .  A
C2328      H2333   1.062       .  S
C2329      C2330   1.432       .  A
C2330      N2331   1.432       .  S
N2331      H2335   1.045       .  S
N2331      H2336   1.046       .  S
N2334      H2337   1.045       .  S
N2334      H2338   1.045       .  S
C2339      C2340   1.397       .  A
C2339      C2344   1.405       .  A
C2339      H2346   1.067       .  S
C2340      C2341   1.436       .  A
C2341      C2342   1.413       .  A
C2341      N2348   1.433       .  S
C2342      C2343   1.401       .  A
C2342      H2347   1.084       .  S
C2343      C2344   1.414       .  A
C2344      N2345   1.434       .  S
N2345      H2349   1.046       .  S
N2345      H2350   1.046       .  S
N2348      H2351   1.045       .  S
N2348      H2352   1.046       .  S
C2353      C2354   1.399       .  A
C2353      C2358   1.407       .  A
C2353      H2360   1.084       .  S
C2354      C2355   1.400       .  A
C2355      C2356   1.393       .  A
C2355      N2362   1.435       .  S
C2356      C2357   1.420       .  A
C2356      H2361   1.061       .  S
C2357      C2358   1.429       .  A
C2358      N2359   1.434       .  S
N2359      H2363   1.046       .  S
N2359      H2364   1.045       .  S
N2362      H2365   1.046       .  S
N2362      H2366   1.045       .  S
C2367      C2368   1.372       .  A
C2367      C2372   1.389       .  A
C2367      H2374   1.085       .  S
C2368      C2369   1.402       .  A
C2369      C2370   1.390       .  A
C2369      N2376   1.417       .  S
C2370      C2371   1.405       .  A
C2370      H2375   1.078       .  S
C2371      C2372   1.448       .  A
C2372      N2373   1.431       .  S
N2373      H2377   1.045       .  S
N2373      H2378   1.045       .  S
N2376      H2379   1.043       .  S
N2376      H2380   1.044       .  S
C2381      C2382   1.404       .  A
C2381      C2386   1.417       .  A
C2381      H2388   1.084       .  S
C2382      C2383   1.429       .  A
C2383      C2384   1.401       .  A
C2383      N2390   1.434       .  S
C2384      C2385   1.396       .  A
C2384      H2389   1.083       .  S
C2385      C2386   1.435       .  A
C2386      N2387   1.433       .  S
N2387      H2391   1.046       .  S
N2387      H2392   1.045       .  S
N2390      H2393   1.043       .  S
N2390      H2394   1.045       .  S
C2395      C2396   1.410       .  A
C2395      C2400   1.405       .  A
C2395      H2402   1.084       .  S
C2396      C2397   1.401       .  A
C2397      C2398   1.411       .  A
C2397      N2404   1.432       .  S
C2398      C2399   1.437       .  A
C2398      H2403   1.060       .  S
C2399      C2400   1.436       .  A
C2400      N2401   1.438       .  S
N2401      H2405   1.046       .  S
N2401      H2406   1.033       .  S
N2404      H2407   1.045       .  S
N2404      H2408   1.045       .  S
C2409      C2410   1.377       .  A
C2409      C2414   1.391       .  A
C2409      H2416   1.085       .  S
C2410      C2411   1.419       .  A
C2411      C2412   1.414       .  A
C2411      N2418   1.435       .  S
C2412      C2413   1.405       .  A
C2412      H2417   1.082       .  S
C2413      C2414   1.446       .  A
C2414      N2415   1.433       .  S
N2415      H2419   1.044       .  S
N2415      H2420   1.045       .  S
N2418      H2421   1.045       .  S
N2418      H2422   1.046       .  S
C2423      C2424   1.411       .  A
C2423      C2428   1.414       .  A
C2423      H2430   1.084       .  S
C2424      C2425   1.388       .  A
C2425      C2426   1.398       .  A
C2425      N2432   1.434       .  S
C2426      C2427   1.441       .  A
C2426      H2431   1.077       .  S
C2427      C2428   1.432       .  A
C2428      N2429   1.434       .  S
N2429      H2433   1.046       .  S
N2429      H2434   1.030       .  S
N2432      H2435   1.046       .  S
N2432      H2436   1.046       .  S
C2437      C2438   1.423       .  A
C2437      C2442   1.405       .  A
C2437      H2444   1.068       .  S
C2438      C2439   1.440       .  A
C2439      C2440   1.397       .  A
C2439      N2446   1.438       .  S
C2440      C2441   1.387       .  A
C2440      H2445   1.078       .  S
C2441      C2442   1.410       .  A
C2442      N2443   1.433       .  S
N2443      H2447   1.044       .  S
N2443      H2448   1.045       .  S
N2446      H2449   1.034       .  S
N2446      H2450   1.045       .  S
C2451      C2452   1.399       .  A
C2451      C2456   1.393       .  A
C2451      H2458   1.084       .  S
C2452      C2453   1.412       .  A
C2453      C2454   1.402       .  A
C2453      N2460   1.438       .  S
C2454      C2455   1.418       .  A
C2454      H2459   1.083       .  S
C2455      C2456   1.404       .  A
C2456      N2457   1.426       .  S
N2457      H2461   1.045       .  S
N2457      H2462   1.042       .  S
N2460      H2463   1.046       .  S
N2460      H2464   1.046       .  S
C2465      C2466   1.410       .  A
C2465      C2470   1.424       .  A
C2465      H2472   1.083       .  S
C2466      C2467   1.414       .  A
C2467      C2468   1.402       .  A
C2467      N2474   1.433       .  S
C2468      C2469   1.413       .  A
C2468      H2473   1.067       .  S
C2469      C2470   1.429       .  A
C2470      N2471   1.436       .  S
N2471      H2475   1.046       .  S
N2471      H2476   1.045       .  S
N2474      H2477   1.046       .  S
N2474      H2478   1.043       .  S
C2479      C2480   1.410       .  A
C2479      C2484   1.414       .  A
C2479      H2486   1.083       .  S
C2480      C2481   1.410       .  A
C2481      C2482   1.405       .  A
C2481      N2488   1.438       .  S
C2482      C2483   1.417       .  A
C2482      H2487   1.084       .  S
C2483      C2484   1.407       .  A
C2484      N2485   1.434       .  S
N2485      H2489   1.045       .  S
N2485      H2490   1.045       .  S
N2488      H2491   1.046       .  S
N2488      H2492   1.046       .  S
C2493      C2494   1.408       .  A
C2493      C2498   1.418       .  A
C2493      H2500   1.083       .  S
C2494      C2495   1.429       .  A
C2495      C2496   1.424       .  A
C2495      N2502   1.435       .  S
C2496      C2497   1.414       .  A
C2496      H2501   1.083       .  S
C2497      C2498   1.423       .  A
C2498      N2499   1.437       .  S
N2499      H2503   1.046       .  S
N2499      H2504   1.045       .  S
N2502      H2505   1.045       .  S
N2502      H2506   1.046       .  S
C2507      C2508   1.412       .  A
C2507      C2512   1.419       .  A
C2507      H2514   1.084       .  S
C2508      C2509   1.390       .  A
C2509      C2510   1.386       .  A
C2509      N2516   1.434       .  S
C2510      C2511   1.431       .  A
C2510      H2515   1.074       .  S
C2511      C2512   1.425       .  A
C2512      N2513   1.427       .  S
N2513      H2517   1.046       .  S
N2513      H2518   1.045       .  S
N2516      H2519   1.046       .  S
N2516      H2520   1.045       .  S
C2521      C2522   1.380       .  A
C2521      C2526   1.391       .  A
C2521      H2528   1.085       .  S
C2522      C2523   1.413       .  A
C2523      C2524   1.406       .  A
C2523      N2530   1.432       .  S
C2524      C2525   1.409       .  A
C2524      H2529   1.081       .  S
C2525      C2526   1.444       .  A
C2526      N2527   1.433       .  S
N2527      H2531   1.045       .  S
N2527      H2532   1.044       .  S
N2530      H2533   1.046       .  S
N2530      H2534   1.043       .  S
C2535      C2536   1.420       .  A
C2535      C2540   1.391       .  A
C2535      H2542   1.073       .  S
C2536      C2537   1.420       .  A
C2537      C2538   1.379       .  A
C2537      N2544   1.436       .  S
C2538      C2539   1.394       .  A
C2538      H2543   1.072       .  S
C2539      C2540   1.396       .  A
C2540      N2541   1.432       .  S
N2541      H2545   1.046       .  S
N2541      H2546   1.046       .  S
N2544      H2547   1.046       .  S
N2544      H2548   1.042       .  S
C2549      C2550   1.414       .  A
C2549      C2554   1.418       .  A
C2549      H2556   1.084       .  S
C2550      C2551   1.390       .  A
C2551      C2552   1.389       .  A
C2551      N2558   1.434       .  S
C2552      C2553   1.427       .  A
C2552      H2557   1.078       .  S
C2553      C2554   1.412       .  A
C2554      N2555   1.431       .  S
N2555      H2559   1.045       .  S
N2555      H2560   1.046       .  S
N2558      H2561   1.046       .  S
N2558      H2562   1.046       .  S
C2563      C2564   1.416       .  A
C2563      C2568   1.415       .  A
C2563      H2570   1.083       .  S
C2564      C2565   1.447       .  A
C2565      C2566   1.396       .  A
C2565      N2572   1.429       .  S
C2566      C2567   1.384       .  A
C2566      H2571   1.086       .  S
C2567      C2568   1.422       .  A
C2568      N2569   1.439       .  S
N2569      H2573   1.046       .  S
N2569      H2574   1.044       .  S
N2572      H2575   1.046       .  S
N2572      H2576   1.046       .  S
C2577      C2578   1.419       .  A
C2577      C2582   1.420       .  A
C2577      H2584   1.084       .  S
C2578      C2579   1.393       .  A
C2579      C2580   1.386       .  A
C2579      N2586   1.434       .  S
C2580      C2581   1.430       .  A
C2580      H2585   1.078       .  S
C2581      C2582   1.408       .  A
C2582      N2583   1.429       .  S
N2583      H2587   1.044       .  S
N2583      H2588   1.045       .  S
N2586      H2589   1.045       .  S
N2586      H2590   1.045       .  S
C2591      C2592   1.419       .  A
C2591      C2596   1.416       .  A
C2591      H2598   1.082       .  S
C2592      C2593   1.405       .  A
C2593      C2594   1.413       .  A
C2593      N2600   1.431       .  S
C2594      C2595   1.429       .  A
C2594      H2599   1.083       .  S
C2595      C2596   1.416       .  A
C2596      N2597   1.440       .  S
N2597      H2601   1.044       .  S
N2597      H2602   1.041       .  S
N2600      H2603   1.046       .  S
N2600      H2604   1.046       .  S
C2605      C2606   1.419       .  A
C2605      C2610   1.389       .  A
C2605      H2612   1.085       .  S
C2606      C2607   1.424       .  A
C2607      C2608   1.395       .  A
C2607      N2614   1.423       .  S
C2608      C2609   1.400       .  A
C2608      H2613   1.084       .  S
C2609      C2610   1.404       .  A
C2610      N2611   1.439       .  S
N2611      H2615   1.045       .  S
N2611      H2616   1.046       .  S
N2614      H2617   1.046       .  S
N2614      H2618   1.046       .  S
C2619      C2620   1.397       .  A
C2619      C2624   1.402       .  A
C2619      H2626   1.084       .  S
C2620      C2621   1.400       .  A
C2621      C2622   1.394       .  A
C2621      N2628   1.435       .  S
C2622      C2623   1.423       .  A
C2622      H2627   1.060       .  S
C2623      C2624   1.437       .  A
C2624      N2625   1.433       .  S
N2625      H2629   1.046       .  S
N2625      H2630   1.046       .  S
N2628      H2631   1.046       .  S
N2628      H2632   1.046       .  S
C2633      C2634   1.432       .  A
C2633      C2638   1.404       .  A
C2633      H2640   1.082       .  S
C2634      C2635   1.408   1_554  A
C2635      C2636   1.417       .  A
C2635      N2642   1.440       .  S
C2636      C2637   1.421   1_556  A
C2636      H2641   1.083       .  S
C2637      C2638   1.405       .  A
C2638      N2639   1.433       .  S
N2639      H2643   1.044       .  S
N2639      H2644   1.044       .  S
N2642      H2645   1.042       .  S
N2642      H2646   1.046       .  S
C2647      C2648   1.414       .  A
C2647      C2652   1.412       .  A
C2647      H2654   1.083       .  S
C2648      C2649   1.403       .  A
C2649      C2650   1.415       .  A
C2649      N2656   1.432       .  S
C2650      C2651   1.431       .  A
C2650      H2655   1.065       .  S
C2651      C2652   1.429       .  A
C2652      N2653   1.437   1_556  S
N2653      H2657   1.046   1_554  S
N2653      H2658   1.042       .  S
N2656      H2659   1.045       .  S
N2656      H2660   1.046       .  S
C2661      C2662   1.391       .  A
C2661      C2666   1.405       .  A
C2661      H2668   1.084       .  S
C2662      C2663   1.431       .  A
C2663      C2664   1.406       .  A
C2663      N2670   1.440   1_554  S
C2664      C2665   1.403       .  A
C2664      H2669   1.071       .  S
C2665      C2666   1.444       .  A
C2666      N2667   1.433       .  S
N2667      H2671   1.046       .  S
N2667      H2672   1.045       .  S
N2670      H2673   1.046       .  S
N2670      H2674   1.045       .  S
C2675      C2676   1.421       .  A
C2675      C2680   1.418       .  A
C2675      H2682   1.083       .  S
C2676      C2677   1.431       .  A
C2677      C2678   1.416       .  A
C2677      N2684   1.434       .  S
C2678      C2679   1.404       .  A
C2678      H2683   1.083       .  S
C2679      C2680   1.425       .  A
C2680      N2681   1.439       .  S
N2681      H2685   1.045       .  S
N2681      H2686   1.045       .  S
N2684      H2687   1.044       .  S
N2684      H2688   1.046       .  S
C2689      C2690   1.409       .  A
C2689      C2694   1.406       .  A
C2689      H2696   1.081       .  S
C2690      C2691   1.437       .  A
C2691      C2692   1.384       .  A
C2691      N2698   1.431       .  S
C2692      C2693   1.380       .  A
C2692      H2697   1.085       .  S
C2693      C2694   1.417       .  A
C2694      N2695   1.439       .  S
N2695      H2699   1.046       .  S
N2695      H2700   1.042       .  S
N2698      H2701   1.045       .  S
N2698      H2702   1.044       .  S
C2703      C2704   1.393       .  A
C2703      C2708   1.399       .  A
C2703      H2710   1.072       .  S
C2704      C2705   1.398       .  A
C2705      C2706   1.392       .  A
C2705      N2712   1.439       .  S
C2706      C2707   1.419       .  A
C2706      H2711   1.082       .  S
C2707      C2708   1.409       .  A
C2708      N2709   1.431       .  S
N2709      H2713   1.045       .  S
N2709      H2714   1.040       .  S
N2712      H2715   1.046       .  S
N2712      H2716   1.046       .  S
C2717      C2718   1.379       .  A
C2717      C2722   1.390       .  A
C2717      H2724   1.085       .  S
C2718      C2719   1.427       .  A
C2719      C2720   1.414       .  A
C2719      N2726   1.438       .  S
C2720      C2721   1.405       .  A
C2720      H2725   1.082       .  S
C2721      C2722   1.443       .  A
C2722      N2723   1.434       .  S
N2723      H2727   1.044       .  S
N2723      H2728   1.045       .  S
N2726      H2729   1.044       .  S
N2726      H2730   1.046       .  S
C2731      C2732   1.435       .  A
C2731      C2736   1.408       .  A
C2731      H2738   1.076       .  S
C2732      C2733   1.416       .  A
C2733      C2734   1.419       .  A
C2733      N2740   1.431       .  S
C2734      C2735   1.418       .  A
C2734      H2739   1.084       .  S
C2735      C2736   1.399       .  A
C2736      N2737   1.439       .  S
N2737      H2741   1.046       .  S
N2737      H2742   1.045       .  S
N2740      H2743   1.045       .  S
N2740      H2744   1.045       .  S
C2745      C2746   1.376       .  A
C2745      C2750   1.392       .  A
C2745      H2752   1.085       .  S
C2746      C2747   1.421       .  A
C2747      C2748   1.409       .  A
C2747      N2754   1.430       .  S
C2748      C2749   1.406       .  A
C2748      H2753   1.079       .  S
C2749      C2750   1.451       .  A
C2750      N2751   1.433       .  S
N2751      H2755   1.046       .  S
N2751      H2756   1.045       .  S
N2754      H2757   1.045       .  S
N2754      H2758   1.038       .  S
C2759      C2760   1.408       .  A
C2759      C2764   1.422       .  A
C2759      H2766   1.083       .  S
C2760      C2761   1.431       .  A
C2761      C2762   1.412       .  A
C2761      N2768   1.433       .  S
C2762      C2763   1.400       .  A
C2762      H2767   1.077       .  S
C2763      C2764   1.435       .  A
C2764      N2765   1.429       .  S
N2765      H2769   1.044       .  S
N2765      H2770   1.045       .  S
N2768      H2771   1.045       .  S
N2768      H2772   1.043       .  S
C2773      C2774   1.425       .  A
C2773      C2778   1.381       .  A
C2773      H2780   1.078       .  S
C2774      C2775   1.419       .  A
C2775      C2776   1.415       .  A
C2775      N2782   1.431       .  S
C2776      C2777   1.410       .  A
C2776      H2781   1.084       .  S
C2777      C2778   1.387       .  A
C2778      N2779   1.434       .  S
N2779      H2783   1.046       .  S
N2779      H2784   1.046       .  S
N2782      H2785   1.045       .  S
N2782      H2786   1.045       .  S
C2787      C2788   1.408       .  A
C2787      C2792   1.403       .  A
C2787      H2794   1.083       .  S
C2788      C2789   1.419       .  A
C2789      C2790   1.381       .  A
C2789      N2796   1.435       .  S
C2790      C2791   1.400       .  A
C2790      H2795   1.084       .  S
C2791      C2792   1.413       .  A
C2792      N2793   1.437       .  S
N2793      H2797   1.046       .  S
N2793      H2798   1.046       .  S
N2796      H2799   1.046       .  S
N2796      H2800   1.046       .  S
