geometry optimzed in LAMMPS
_audit_creation_date              2020-11-30 
_audit_creation_method            'lammps2cif' 
_symmetry_space_group_name_H-M    'P1' 
_symmetry_Int_Tables_number       1 
_symmetry_cell_setting            triclinic 
loop_ 
_symmetry_equiv_pos_as_xyz 
  x,y,z 
_cell_length_a                    29.619664149847726 
_cell_length_b                    29.4841380499059 
_cell_length_c                    29.589046798148544 
_cell_angle_alpha                 90.20657570377021 
_cell_angle_beta                  89.74940885470218 
_cell_angle_gamma                 90.3604526116247 
loop_ 
_atom_site_label 
_atom_site_type_symbol 
_atom_site_fract_x 
_atom_site_fract_y 
_atom_site_fract_z 
_atom_site_charge 
Zn1        Zn  0.45835827  0.45462040  0.45852328     1.49720
Zn2        Zn  0.56048653  0.47177487  0.48893118     1.49360
Zn3        Zn  0.49656064  0.55444225  0.48890731     1.49110
Zn4        Zn  0.48409887  0.48019472  0.56274328     1.49480
O5          O  0.49889590  0.48966411  0.49946631    -1.84040
O6          O  0.49504306  0.40781557  0.42152198    -0.74670
O7          O  0.59683359  0.51894662  0.45726484    -0.74490
O8          O  0.45363987  0.56404419  0.43939182    -0.74010
O9          O  0.56385018  0.41707015  0.45000973    -0.74690
O10         O  0.42754052  0.49805075  0.41411101    -0.74280
O11         O  0.55439706  0.58034596  0.46474624    -0.74870
O12         O  0.45796712  0.53673850  0.59119487    -0.74260
O13         O  0.59060823  0.45618940  0.54556266    -0.75020
O14         O  0.47363545  0.59099714  0.54149322    -0.74410
O15         O  0.53747103  0.45723224  0.59851476    -0.74870
O16         O  0.43599553  0.43310847  0.56637092    -0.74780
O17         O  0.41115578  0.41964868  0.49649619    -0.74570
C18         C  0.53661876  0.39669616  0.42381047     0.77220
C19         C  0.58994231  0.56079777  0.45083908     0.77710
C20         C  0.43020474  0.54126933  0.41155804     0.76670
C21         C  0.45671221  0.57803097  0.57882098     0.77040
C22         C  0.57769766  0.44881470  0.58573383     0.78180
C23         C  0.40909443  0.41331969  0.53920060     0.77230
Zn24       Zn  0.01586206  0.50133424  0.43282175     1.49720
Zn25       Zn  0.03867482  0.46728725  0.53471932     1.49360
Zn26       Zn  0.99517072  0.56652121  0.51329926     1.49110
Zn27       Zn  0.93592075  0.47869933  0.50063414     1.49480
O28         O  0.99696275  0.50280657  0.49581275    -1.84040
O29         O  0.06832815  0.46016275  0.42651390    -0.74670
O30         O  0.07027286  0.50970241  0.58048685    -0.74490
O31         O  0.02087320  0.60972177  0.46677305    -0.74010
O32         O  0.08817821  0.43797033  0.49521956    -0.74690
O33         O  0.04021326  0.56172458  0.41221904    -0.74280
O34         O  0.03612859  0.57480623  0.56521268    -0.74870
O35         O  0.89442979  0.52242970  0.53270695    -0.74260
O36         O  0.00343495  0.41663182  0.56808363    -0.75020
O37         O  0.93422581  0.58660409  0.53386255    -0.74410
O38         O  0.93519714  0.42177813  0.53737163    -0.74870
O39         O  0.91055300  0.46382769  0.43954054    -0.74780
O40         O  0.96629437  0.47894520  0.39133593    -0.74570
C41         C  0.09464082  0.43856475  0.45248998     0.77220
C42         C  0.06512699  0.55223101  0.58701321     0.77710
C43         C  0.04029794  0.60133171  0.42934280     0.76670
C44         C  0.89849347  0.56425787  0.54272667     0.77040
C45         C  0.96286889  0.40217835  0.56351801     0.78180
C46         C  0.92628688  0.46493675  0.39946064     0.77230
Zn47       Zn  0.48758791  0.43583238  0.02176458     1.49720
Zn48       Zn  0.48411332  0.50080914  0.94090114     1.49360
Zn49       Zn  0.45959170  0.54155603  0.03883032     1.49110
Zn50       Zn  0.56242299  0.51344427  0.01027628     1.49480
O51         O  0.49829938  0.49846503  0.00408751    -1.84040
O52         O  0.45919267  0.39652803  0.97240045    -0.74670
O53         O  0.43102028  0.53881556  0.93243146    -0.74490
O54         O  0.42494030  0.50666803  0.08796135    -0.74010
O55         O  0.46723329  0.44148932  0.91353732    -0.74690
O56         O  0.44479449  0.43511304  0.07364816    -0.74280
O57         O  0.41222652  0.57153605  0.99701550    -0.74870
O58         O  0.56873931  0.56873511  0.04978633    -0.74260
O59         O  0.53239956  0.52973334  0.90459603    -0.75020
O60         O  0.49929189  0.59104625  0.06832664    -0.74410
O61         O  0.59105360  0.53227427  0.95092233    -0.74870
O62         O  0.59729705  0.46111198  0.03704405    -0.74780
O63         O  0.54505029  0.40735237  0.04225171    -0.74570
C64         C  0.45467775  0.40385912  0.93032056     0.77220
C65         C  0.40572312  0.56528257  0.95477484     0.77710
C66         C  0.42240936  0.46421266  0.09610311     0.76670
C67         C  0.54214691  0.59664428  0.06907530     0.77040
C68         C  0.57324372  0.53986127  0.91265157     0.78180
C69         C  0.58552178  0.42079731  0.04760088     0.77230
Zn70       Zn  0.53814765  0.04597430  0.46137442     1.49720
Zn71       Zn  0.43785570  0.01762484  0.49800570     1.49360
Zn72       Zn  0.51008084  0.94262352  0.48491716     1.49110
Zn73       Zn  0.52135720  0.01045138  0.56530629     1.49480
O74         O  0.50234157  0.00515250  0.50210475    -1.84040
O75         O  0.49564459  0.08897087  0.42626362    -0.74670
O76         O  0.39942778  0.96508463  0.47443585    -0.74490
O77         O  0.55407116  0.93805950  0.43529457    -0.74010
O78         O  0.42882160  0.06664626  0.45305096    -0.74690
O79         O  0.57523643  0.00770396  0.41535064    -0.74280
O80         O  0.45338592  0.91505438  0.46280115    -0.74870
O81         O  0.54185158  0.95101654  0.59180582    -0.74260
O82         O  0.41462301  0.04147647  0.55687934    -0.75020
O83         O  0.53549259  0.90404053  0.53352112    -0.74410
O84         O  0.47245501  0.03794247  0.60462234    -0.74870
O85         O  0.57471970  0.05239728  0.56836086    -0.74780
O86         O  0.58346294  0.08282938  0.49990303    -0.74570
C87         C  0.45252220  0.09128608  0.42682427     0.77220
C88         C  0.41232831  0.92674313  0.45957823     0.77710
C89         C  0.57756722  0.96460993  0.41100651     0.76670
C90         C  0.54697703  0.91201243  0.57404507     0.77040
C91         C  0.43212918  0.04920700  0.59538196     0.78180
C92         C  0.59487497  0.07939878  0.54141698     0.77230
Zn93       Zn  0.96293079  0.46502231  0.03521149     1.49720
Zn94       Zn  0.98309992  0.49699844  0.93232162     1.49360
Zn95       Zn  0.00282098  0.56421978  0.00852562     1.49110
Zn96       Zn  0.06555270  0.48062994  0.99737666     1.49480
O97         O  0.00333150  0.50068288  0.99393681    -1.84040
O98         O  0.91310230  0.43382474  0.99880668    -0.74670
O99         O  0.95908775  0.55557114  0.90977107    -0.74490
O100        O  0.95960938  0.57157959  0.05748385    -0.74010
O101        O  0.93040189  0.45658037  0.92929295    -0.74690
O102        O  0.93062311  0.50669905  0.08085703    -0.74280
O103        O  0.97988282  0.60650095  0.96092854    -0.74870
O104        O  0.10683220  0.52691521  0.02737174    -0.74260
O105        O  0.03032389  0.47281754  0.89062684    -0.75020
O106        O  0.06049697  0.58556223  0.03333242    -0.74410
O107        O  0.08921975  0.46362338  0.93595704    -0.74870
O108        O  0.06747635  0.42539300  0.03621801    -0.74780
O109        O  0.99963355  0.41620119  0.06772677    -0.74570
C110        C  0.90520298  0.43481448  0.95649544     0.77220
C111        C  0.95942011  0.59591920  0.92483236     0.77710
C112        C  0.93309915  0.54988964  0.08309391     0.76670
C113        C  0.09830613  0.56709036  0.04058060     0.77040
C114        C  0.07097985  0.46100820  0.89712993     0.78180
C115        C  0.04074740  0.40416376  0.06262385     0.77230
Zn116      Zn  0.98372818  0.99860525  0.43958118     1.49720
Zn117      Zn  0.99532395  0.93159446  0.52013967     1.49360
Zn118      Zn  0.05980888  0.01696762  0.50966838     1.49110
Zn119      Zn  0.95543519  0.03269171  0.53988064     1.49480
O120        O  0.99811794  0.99530643  0.50302652    -1.84040
O121        O  0.96311770  0.93928279  0.41472467    -0.74670
O122        O  0.05574628  0.90920093  0.54068094    -0.74490
O123        O  0.08438105  0.04333872  0.45258876    -0.74010
O124        O  0.96892233  0.89085742  0.47116956    -0.74690
O125        O  0.03307928  0.02561414  0.40084407    -0.74280
O126        O  0.10101536  0.96948274  0.53471742    -0.74870
O127        O  0.99056492  0.08025362  0.57608243    -0.74260
O128        O  0.95578697  0.92586023  0.57442770    -0.75020
O129        O  0.06120194  0.06785953  0.55348196    -0.74410
O130        O  0.92359608  0.99283417  0.58659913    -0.74870
O131        O  0.90994158  0.06668133  0.49945706    -0.74780
O132        O  0.93339225  0.04137354  0.43264625    -0.74570
C133        C  0.95745367  0.89966549  0.43075347     0.77220
C134        C  0.09376470  0.92864414  0.54645597     0.77710
C135        C  0.06979575  0.04482977  0.41233105     0.76670
C136        C  0.03266481  0.08946381  0.57718597     0.77040
C137        C  0.92965654  0.95136318  0.59716534     0.78180
C138        C  0.90781241  0.06653737  0.45633576     0.77230
Zn139      Zn  0.43859773  0.99614908  0.00876865     1.49720
Zn140      Zn  0.51651732  0.00319075  0.94026424     1.49360
Zn141      Zn  0.51226115  0.07205766  0.02160490     1.49110
Zn142      Zn  0.53896683  0.96614134  0.04060634     1.49480
O143        O  0.50236040  0.00910113  0.00368757    -1.84040
O144        O  0.41200097  0.97017173  0.95253648    -0.74670
O145        O  0.54008571  0.06004540  0.91409887    -0.74490
O146        O  0.45439174  0.10206778  0.04074166    -0.74010
O147        O  0.46680849  0.97648985  0.90203275    -0.74690
O148        O  0.40240150  0.04874445  0.03104604    -0.74280
O149        O  0.54240318  0.10876242  0.97161525    -0.74870
O150        O  0.57513576  0.00220369  0.08766126    -0.74260
O151        O  0.56576661  0.95982314  0.93373286    -0.75020
O152        O  0.55228110  0.07316821  0.07609194    -0.74410
O153        O  0.58240773  0.92900770  0.99990680    -0.74870
O154        O  0.49676556  0.92257565  0.07569219    -0.74780
O155        O  0.43022250  0.94844629  0.05375564    -0.74570
C156        C  0.42740681  0.96324652  0.91299588     0.77220
C157        C  0.55084676  0.09838078  0.93060212     0.77710
C158        C  0.41359369  0.08843047  0.04366095     0.76670
C159        C  0.57499269  0.04426783  0.09821067     0.77040
C160        C  0.58769294  0.93165508  0.95709755     0.78180
C161        C  0.45364660  0.92197616  0.07760977     0.77230
Zn162      Zn  0.93937015  0.01363007  0.00222750     1.49720
Zn163      Zn  0.00210964  0.93112893  0.01270377     1.49360
Zn164      Zn  0.02095813  0.00079305  0.93405389     1.49110
Zn165      Zn  0.04118462  0.03032758  0.03989294     1.49480
O166        O  0.00179291  0.99476225  0.99744470    -1.84040
O167        O  0.89638119  0.96697628  0.02806207    -0.74670
O168        O  0.02627461  0.89158211  0.96340296    -0.74490
O169        O  0.97291399  0.03013623  0.89414895    -0.74010
O170        O  0.94263870  0.90885029  0.03644919    -0.74690
O171        O  0.91694638  0.03586572  0.94353498    -0.74280
O172        O  0.04005399  0.94022997  0.90774057    -0.74870
O173        O  0.08933280  0.06486069  0.00266525    -0.74260
O174        O  0.04334723  0.92211704  0.06349754    -0.75020
O175        O  0.07565630  0.04119959  0.93223637    -0.74410
O176        O  0.07230597  0.98746011  0.08609174    -0.74870
O177        O  0.00278740  0.07625139  0.07625068    -0.74780
O178        O  0.93497939  0.06403997  0.04628717    -0.74570
C179        C  0.90443143  0.92737236  0.04245518     0.77220
C180        C  0.04121744  0.90029473  0.92404877     0.77710
C181        C  0.93283201  0.04225256  0.90403961     0.76670
C182        C  0.09864202  0.06447562  0.96037882     0.77040
C183        C  0.06823597  0.94441652  0.09025130     0.78180
C184        C  0.96049326  0.08431639  0.07431046     0.77230
Zn185      Zn  0.74359555  0.75782220  0.31449325     1.49720
Zn186      Zn  0.72794583  0.68506155  0.23658086     1.49360
Zn187      Zn  0.70762165  0.79190987  0.21542380     1.49110
Zn188      Zn  0.80806571  0.75373304  0.23291187     1.49480
O189        O  0.74572759  0.74763524  0.24941505    -1.84040
O190        O  0.71657584  0.70489535  0.34769470    -0.74670
O191        O  0.67549078  0.68489463  0.19471407    -0.74490
O192        O  0.67904351  0.83784522  0.26051901    -0.74010
O193        O  0.70604561  0.65471924  0.29248621    -0.74690
O194        O  0.70431802  0.81083129  0.32529050    -0.74280
O195        O  0.65827080  0.75685960  0.17978837    -0.74870
O196        O  0.81367516  0.79830600  0.18438255    -0.74260
O197        O  0.77734188  0.64699943  0.20779157    -0.75020
O198        O  0.74680879  0.82838679  0.16994331    -0.74410
O199        O  0.83368865  0.69673638  0.20936931    -0.74870
O200        O  0.84722547  0.77827299  0.28178510    -0.74780
O201        O  0.80333671  0.77615472  0.34249409    -0.74570
C202        C  0.70258733  0.66648084  0.33373239     0.77220
C203        C  0.65108361  0.71421810  0.17528137     0.77710
C204        C  0.68201555  0.84013439  0.30365085     0.76670
C205        C  0.78932609  0.82607354  0.16292092     0.77040
C206        C  0.81811776  0.65780340  0.19922786     0.78180
C207        C  0.84072073  0.78587130  0.32349682     0.77230
Zn208      Zn  0.69383192  0.25211698  0.73310746     1.49720
Zn209      Zn  0.77947884  0.31660283  0.74044750     1.49360
Zn210      Zn  0.76290887  0.24063886  0.81014695     1.49110
Zn211      Zn  0.79391101  0.21207192  0.70930305     1.49480
O212        O  0.75800164  0.25482933  0.74712395    -1.84040
O213        O  0.67005247  0.31288611  0.71665886    -0.74670
O214        O  0.79491052  0.34576697  0.79985469    -0.74490
O215        O  0.70703860  0.21256076  0.83472518    -0.74010
O216        O  0.73288042  0.35428620  0.70975179    -0.74690
O217        O  0.65521377  0.22418760  0.78225154    -0.74280
O218        O  0.77995537  0.29240212  0.85003574    -0.74870
O219        O  0.82411475  0.16364130  0.75042443    -0.74260
O220        O  0.83468806  0.31809721  0.70164550    -0.75020
O221        O  0.80875812  0.19422652  0.81723705    -0.74410
O222        O  0.84367651  0.24797002  0.67492823    -0.74870
O223        O  0.75167429  0.18160021  0.66232716    -0.74780
O224        O  0.68542827  0.21330603  0.67826296    -0.74570
C225        C  0.69065543  0.34872116  0.70437894     0.77220
C226        C  0.79316571  0.33226471  0.84058314     0.77710
C227        C  0.66699828  0.20838919  0.82027179     0.76670
C228        C  0.82731915  0.16369563  0.79359346     0.77040
C229        C  0.85565733  0.28972760  0.67695213     0.78180
C230        C  0.70968141  0.18728799  0.65400134     0.77230
Zn231      Zn  0.31757206  0.74254851  0.76751780     1.49720
Zn232      Zn  0.23839983  0.81294359  0.76076165     1.49360
Zn233      Zn  0.24893181  0.73858648  0.68696069     1.49110
Zn234      Zn  0.21402740  0.70873401  0.78680308     1.49480
O235        O  0.25439736  0.75009879  0.75118661    -1.84040
O236        O  0.34587485  0.80067659  0.79068987    -0.74670
O237        O  0.21752694  0.84302647  0.70459956    -0.74490
O238        O  0.30543523  0.71331377  0.66025378    -0.74010
O239        O  0.28828659  0.84881555  0.78912818    -0.74690
O240        O  0.35403826  0.71334625  0.71719581    -0.74280
O241        O  0.22383851  0.79088475  0.65104458    -0.74870
O242        O  0.17937451  0.66438534  0.74499153    -0.74260
O243        O  0.18565114  0.81654220  0.80204149    -0.75020
O244        O  0.20442617  0.68963728  0.67901052    -0.74410
O245        O  0.16744165  0.74588761  0.82174390    -0.74870
O246        O  0.25108172  0.67253099  0.83223547    -0.74780
O247        O  0.32059093  0.69841288  0.81810416    -0.74570
C248        C  0.32877708  0.83931667  0.79919998     0.77220
C249        C  0.21100698  0.82984770  0.66428012     0.77710
C250        C  0.34325248  0.70232252  0.67699371     0.76670
C251        C  0.17950064  0.66299687  0.70185747     0.77040
C252        C  0.16086735  0.78857783  0.82340543     0.78180
C253        C  0.29346730  0.67283470  0.83976308     0.77230
Zn254      Zn  0.24414950  0.22746732  0.68755874     1.49720
Zn255      Zn  0.26091250  0.31059036  0.74993512     1.49360
Zn256      Zn  0.18103182  0.24165482  0.77202596     1.49110
Zn257      Zn  0.28420269  0.21097553  0.78892128     1.49480
O258        O  0.24293154  0.24712661  0.75023012    -1.84040
O259        O  0.27034164  0.27347718  0.64409181    -0.74670
O260        O  0.21070347  0.35163261  0.76885603    -0.74490
O261        O  0.13912899  0.21301579  0.72587902    -0.74010
O262        O  0.28693027  0.33052230  0.69028050    -0.74690
O263        O  0.18367450  0.20632665  0.66577423    -0.74280
O264        O  0.15668424  0.30271065  0.78807102    -0.74870
O265        O  0.24792485  0.17614525  0.83730452    -0.74260
O266        O  0.31027509  0.31992925  0.79389921    -0.75020
O267        O  0.17861606  0.20325029  0.82772339    -0.74410
O268        O  0.33012246  0.25290657  0.82082873    -0.74870
O269        O  0.32011332  0.16663060  0.74931749    -0.74780
O270        O  0.28749932  0.17730897  0.68251272    -0.74570
C271        C  0.28843356  0.31193868  0.65149819     0.77220
C272        C  0.17159956  0.34311313  0.78470531     0.77710
C273        C  0.14528641  0.20181917  0.68472380     0.76670
C274        C  0.20640841  0.17857887  0.84903804     0.77040
C275        C  0.33568697  0.29584332  0.81836633     0.78180
C276        C  0.31678867  0.15816603  0.70710276     0.77230
Zn277      Zn  0.31704916  0.74908546  0.26083051     1.49720
Zn278      Zn  0.23492955  0.68412697  0.25958764     1.49360
Zn279      Zn  0.21834217  0.78917778  0.28911209     1.49110
Zn280      Zn  0.24606132  0.76162210  0.18620256     1.49480
O281        O  0.25314437  0.74657518  0.24942769    -1.84040
O282        O  0.34276849  0.69009333  0.27990197    -0.74670
O283        O  0.18557830  0.68243984  0.30480275    -0.74490
O284        O  0.26129763  0.82226726  0.33328976    -0.74010
O285        O  0.28379350  0.64428858  0.28503583    -0.74690
O286        O  0.32512593  0.78987908  0.31240455    -0.74280
O287        O  0.17165368  0.75330034  0.32690860    -0.74870
O288        O  0.19886198  0.80893915  0.18099184    -0.74260
O289        O  0.21117272  0.65704569  0.20288369    -0.75020
O290        O  0.18394009  0.83524639  0.25016025    -0.74410
O291        O  0.22474562  0.70809720  0.14908366    -0.74870
O292        O  0.30202547  0.79052791  0.16042073    -0.74780
O293        O  0.35473319  0.77682036  0.21150286    -0.74570
C294        C  0.32556095  0.65208624  0.29092959     0.77220
C295        C  0.16407705  0.71065676  0.32909041     0.77710
C296        C  0.30382515  0.81686460  0.33790017     0.76670
C297        C  0.17852680  0.83623260  0.20735015     0.77040
C298        C  0.20911802  0.66994406  0.16200024     0.78180
C299        C  0.34238878  0.79435999  0.17450977     0.77230
Zn300      Zn  0.81773716  0.25091751  0.26356601     1.49720
Zn301      Zn  0.74966911  0.22801683  0.18621361     1.49360
Zn302      Zn  0.71793674  0.21082435  0.29003453     1.49110
Zn303      Zn  0.73310369  0.31278719  0.25088806     1.49480
O304        O  0.75398591  0.25019424  0.24814968    -1.84040
O305        O  0.85848432  0.22283684  0.21590708    -0.74670
O306        O  0.70964083  0.17390867  0.18405148    -0.74490
O307        O  0.76020400  0.17953164  0.33585186    -0.74010
O308        O  0.80905642  0.20531188  0.16234941    -0.74690
O309        O  0.82547584  0.21190011  0.31706425    -0.74280
O310        O  0.68495227  0.16084548  0.25390763    -0.74870
O311        O  0.67898440  0.31666397  0.29158291    -0.74260
O312        O  0.72128810  0.27403181  0.14497393    -0.75020
O313        O  0.66918965  0.24870825  0.32258603    -0.74410
O314        O  0.71252718  0.33393521  0.19013115    -0.74870
O315        O  0.78038812  0.35647698  0.27494222    -0.74780
O316        O  0.84060809  0.31261467  0.28013389    -0.74570
C317        C  0.84886991  0.20435995  0.17824864     0.77220
C318        C  0.68628925  0.15086500  0.21187482     0.77710
C319        C  0.80287702  0.18406904  0.34086830     0.76670
C320        C  0.65755435  0.29014134  0.31806112     0.77040
C321        C  0.70803812  0.31444945  0.15198724     0.78180
C322        C  0.82189834  0.35106050  0.28443600     0.77230
Zn323      Zn  0.24712575  0.27355958  0.18822903     1.49720
Zn324      Zn  0.28792233  0.29081978  0.28789157     1.49360
Zn325      Zn  0.18193034  0.26453164  0.26949760     1.49110
Zn326      Zn  0.25686363  0.19071768  0.25191616     1.49480
O327        O  0.24396337  0.25526217  0.25045669    -1.84040
O328        O  0.28288833  0.32960075  0.18420394    -0.74670
O329        O  0.25274982  0.32606046  0.33663818    -0.74490
O330        O  0.14087365  0.28686227  0.21948768    -0.74010
O331        O  0.32020077  0.33922801  0.24821451    -0.74690
O332        O  0.18705575  0.28705372  0.16073632    -0.74280
O333        O  0.18110233  0.31022922  0.31909754    -0.74870
O334        O  0.20529995  0.15346350  0.27751821    -0.74260
O335        O  0.33421958  0.24770263  0.31855458    -0.75020
O336        O  0.15607619  0.20727719  0.29481870    -0.74410
O337        O  0.30824963  0.18166264  0.29356177    -0.74870
O338        O  0.27943642  0.16647060  0.19217397    -0.74780
O339        O  0.28059485  0.22887897  0.15028575    -0.74570
C340        C  0.31168699  0.35125326  0.20765525     0.77220
C341        C  0.21033908  0.33100901  0.34289945     0.77710
C342        C  0.14806784  0.29366642  0.17763478     0.76670
C343        C  0.16830066  0.16597657  0.29555763     0.77040
C344        C  0.33624031  0.20434456  0.31718596     0.78180
C345        C  0.29050816  0.18754586  0.15632528     0.77230
Zn346      Zn  0.68627819  0.75471666  0.76498076     1.49720
Zn347      Zn  0.78599422  0.78931592  0.79365238     1.49360
Zn348      Zn  0.76476749  0.68663183  0.75874881     1.49110
Zn349      Zn  0.75875995  0.76657221  0.68900526     1.49480
O350        O  0.74978596  0.75000770  0.75193592    -1.84040
O351        O  0.67880303  0.79717936  0.81512488    -0.74670
O352        O  0.83141364  0.75075984  0.82833614    -0.74490
O353        O  0.71514139  0.64909046  0.78628686    -0.74010
O354        O  0.74475875  0.82298399  0.83940033    -0.74690
O355        O  0.65871936  0.69737051  0.78722627    -0.74280
O356        O  0.81546190  0.68194226  0.80120435    -0.74870
O357        O  0.78281733  0.71447892  0.65139309    -0.74260
O358        O  0.82130028  0.83617337  0.75671111    -0.75020
O359        O  0.78359031  0.65811169  0.70047180    -0.74410
O360        O  0.80224299  0.81808970  0.68598139    -0.74870
O361        O  0.70190375  0.78984965  0.66082960    -0.74780
O362        O  0.65013737  0.77982053  0.71400484    -0.74570
C363        C  0.70169851  0.82178690  0.84189938     0.77220
C364        C  0.83808011  0.70805611  0.82688648     0.77710
C365        C  0.67440892  0.65849913  0.79585836     0.76670
C366        C  0.79041461  0.67313364  0.66076768     0.77040
C367        C  0.82365738  0.84267470  0.71413615     0.78180
C368        C  0.66146943  0.79348923  0.67486054     0.77230
C369        C  0.87262951  0.12880050  0.15447880    -0.09070
C370        C  0.88225103  0.17528267  0.15541100     0.07130
C371        C  0.92181535  0.19157751  0.13416241    -0.02840
C372        C  0.94946448  0.16132971  0.10967845    -0.07290
C373        C  0.93806519  0.11499742  0.10681963     0.06240
C374        C  0.90014790  0.09875587  0.13093273    -0.02310
Br375      Br  0.88394069  0.03550332  0.13260176    -0.02010
H376        H  0.84301580  0.11577663  0.17184791     0.10150
H377        H  0.97841886  0.17427140  0.09123546     0.08170
Br378      Br  0.93729262  0.25478966  0.13522291    -0.02440
C379        C  0.10978452  0.84718057  0.16375452    -0.09070
C380        C  0.14604749  0.86722801  0.18628862     0.07130
C381        C  0.15451971  0.91388337  0.18060239    -0.02840
C382        C  0.12771664  0.93927350  0.15082417    -0.07290
C383        C  0.09267621  0.91851052  0.12589956     0.06240
C384        C  0.08318039  0.87176224  0.13400553    -0.02310
Br385      Br  0.03619084  0.83666401  0.10522975    -0.02010
H386        H  0.10336423  0.81116631  0.16779721     0.10150
H387        H  0.13569787  0.97477070  0.14566991     0.08170
Br388      Br  0.20467018  0.94297352  0.20965784    -0.02440
C389        C  0.19468682  0.10353215  0.88534173    -0.09070
C390        C  0.18840231  0.15063052  0.88655414     0.07130
C391        C  0.15852821  0.16909685  0.91899938    -0.02840
C392        C  0.13265991  0.14034532  0.94664426    -0.07290
C393        C  0.13542927  0.09311795  0.94189598     0.06240
C394        C  0.16814045  0.07477619  0.91233492    -0.02310
Br395      Br  0.17589278  0.01049099  0.90588993    -0.02010
H396        H  0.21766601  0.08882831  0.86085407     0.10150
H397        H  0.10783232  0.15492474  0.96932564     0.08170
Br398      Br  0.15028743  0.23335355  0.92529933    -0.02440
C399        C  0.08848516  0.82924289  0.82844101    -0.09070
C400        C  0.12406240  0.80752737  0.85066756     0.07130
C401        C  0.12845047  0.81221541  0.89769705    -0.02840
C402        C  0.09852103  0.83998069  0.92154874    -0.07290
C403        C  0.06480157  0.86425122  0.89891118     0.06240
C404        C  0.05886019  0.85750978  0.85219507    -0.02310
Br405      Br  0.01135767  0.88647519  0.81943651    -0.02010
H406        H  0.08508454  0.82590465  0.79214069     0.10150
H407        H  0.10377055  0.84525953  0.95741558     0.08170
Br408      Br  0.17820397  0.78622080  0.92964962    -0.02440
C409        C  0.86615389  0.08938091  0.88973906    -0.09070
C410        C  0.90411409  0.06762774  0.87156250     0.07130
C411        C  0.91393000  0.07382112  0.82506421    -0.02840
C412        C  0.88770282  0.10383068  0.79915049    -0.07290
C413        C  0.85163896  0.12785284  0.81880947     0.06240
C414        C  0.84023272  0.11882377  0.86451994    -0.02310
Br415      Br  0.78987935  0.14490365  0.89682699    -0.02010
H416        H  0.85686026  0.08482035  0.92488284     0.10150
H417        H  0.89638299  0.10936273  0.76399353     0.08170
Br418      Br  0.96163815  0.04203144  0.79479679    -0.02440
C419        C  0.82733481  0.89453615  0.05961188    -0.09070
C420        C  0.87186600  0.90480271  0.07272477     0.07130
C421        C  0.88588980  0.89409877  0.11668704    -0.02840
C422        C  0.85727364  0.87031238  0.14528774    -0.07290
C423        C  0.81375204  0.85709840  0.13188287     0.06240
C424        C  0.79805709  0.87072406  0.08902527    -0.02310
Br425      Br  0.73867269  0.85540237  0.06828696    -0.02010
H426        H  0.81580158  0.90384644  0.02615468     0.10150
H427        H  0.86972265  0.86137065  0.17851317     0.08170
Br428      Br  0.94341745  0.91277178  0.14055122    -0.02440
C429        C  0.64967109  0.05640893  0.13389450    -0.09070
C430        C  0.60270752  0.06130776  0.13601663     0.07130
C431        C  0.58373714  0.08897017  0.17008326    -0.02840
C432        C  0.61184255  0.11440970  0.19864951    -0.07290
C433        C  0.65884546  0.11338629  0.19308851     0.06240
C434        C  0.67777738  0.08250533  0.16181298    -0.02310
Br435      Br  0.74190191  0.07698413  0.15395203    -0.02010
H436        H  0.66464114  0.03501425  0.10810372     0.10150
H437        H  0.59683238  0.13786103  0.22255518     0.08170
Br438      Br  0.51958405  0.09499383  0.17707720    -0.02440
C439        C  0.30335123  0.13294738  0.09327016    -0.09070
C440        C  0.32021841  0.16535882  0.12352649     0.07130
C441        C  0.36656278  0.17568426  0.12368712    -0.02840
C442        C  0.39582286  0.15215227  0.09522494    -0.07290
C443        C  0.37978577  0.11785028  0.06619754     0.06240
C444        C  0.33260942  0.10946597  0.06421492    -0.02310
Br445      Br  0.30552795  0.06742504  0.02244889    -0.02010
H446        H  0.26748393  0.12565614  0.09252401     0.10150
H447        H  0.43163166  0.15932600  0.09763812     0.08170
Br448      Br  0.39197945  0.21942255  0.16481952    -0.02440
C449        C  0.35847148  0.86983351  0.14507261    -0.09070
C450        C  0.37326969  0.82530876  0.15061487     0.07130
C451        C  0.41712144  0.81346949  0.13641147    -0.02840
C452        C  0.44433921  0.84578756  0.11422199    -0.07290
C453        C  0.42857269  0.89011871  0.10711744     0.06240
C454        C  0.38576666  0.90233686  0.12458977    -0.02310
Br455      Br  0.36274341  0.96330488  0.12378329    -0.02010
H456        H  0.32559839  0.87975164  0.15781868     0.10150
H457        H  0.47706461  0.83586259  0.10125003     0.08170
Br458      Br  0.43991185  0.75329623  0.14423876    -0.02440
C459        C  0.66173043  0.89117190  0.94489953    -0.09070
C460        C  0.61717867  0.90041325  0.93151564     0.07130
C461        C  0.60157034  0.88289450  0.88998692    -0.02840
C462        C  0.63045199  0.85893029  0.86200891    -0.07290
C463        C  0.67527112  0.84996132  0.87425069     0.06240
C464        C  0.69088906  0.86597630  0.91658492    -0.02310
Br465      Br  0.75053229  0.85349620  0.93793879    -0.02010
H466        H  0.67413857  0.90435440  0.97675572     0.10150
H467        H  0.61713504  0.84700670  0.83001579     0.08170
Br468      Br  0.54024209  0.88879057  0.86930906    -0.02440
C469        C  0.59662430  0.20044455  0.86647201    -0.09070
C470        C  0.63528083  0.18107370  0.84689967     0.07130
C471        C  0.64477551  0.13505408  0.85420435    -0.02840
C472        C  0.61639058  0.10925440  0.88147325    -0.07290
C473        C  0.57836444  0.12847589  0.90212706     0.06240
C474        C  0.56815959  0.17437889  0.89437245    -0.02310
Br475      Br  0.51502913  0.20185878  0.91918798    -0.02010
H476        H  0.58900968  0.23580687  0.86059875     0.10150
H477        H  0.62432484  0.07385123  0.88690717     0.08170
Br478      Br  0.69523106  0.10520568  0.82621290    -0.02440
C479        C  0.37215436  0.90173115  0.90072842    -0.09070
C480        C  0.40046481  0.93496707  0.88153194     0.07130
C481        C  0.40487503  0.93682661  0.83390808    -0.02840
C482        C  0.38143264  0.90538651  0.80685327    -0.07290
C483        C  0.35418193  0.87185506  0.82671671     0.06240
C484        C  0.34946893  0.87029963  0.87387415    -0.02310
Br485      Br  0.31290074  0.82499415  0.90325528    -0.02010
H486        H  0.36870327  0.89903798  0.93709439     0.10150
H487        H  0.38449117  0.90706516  0.77039665     0.08170
Br488      Br  0.44081305  0.98204416  0.80385232    -0.02440
C489        C  0.08032735  0.14817218  0.67957664    -0.09070
C490        C  0.10809177  0.18087815  0.65870647     0.07130
C491        C  0.10350019  0.18861829  0.61192257    -0.02840
C492        C  0.07507462  0.16080238  0.58630152    -0.07290
C493        C  0.05046062  0.12554192  0.60654365     0.06240
C494        C  0.05181494  0.12031182  0.65374759    -0.02310
Br495      Br  0.02024827  0.07172349  0.68332402    -0.02010
H496        H  0.08336166  0.14185329  0.71547917     0.10150
H497        H  0.07403256  0.16514392  0.54996854     0.08170
Br498      Br  0.13592828  0.23586853  0.58091987    -0.02440
C499        C  0.11560942  0.05707674  0.34221827    -0.09070
C500        C  0.09314211  0.07456416  0.38017754     0.07130
C501        C  0.09275367  0.12161464  0.38780533    -0.02840
C502        C  0.11597335  0.15042925  0.35864477    -0.07290
C503        C  0.14040030  0.13334525  0.32158746     0.06240
C504        C  0.13952550  0.08608459  0.31299025    -0.02310
Br505      Br  0.16881417  0.05936641  0.26152268    -0.02010
H506        H  0.11520228  0.02088904  0.33578447     0.10150
H507        H  0.11596889  0.18645482  0.36599443     0.08170
Br508      Br  0.06037109  0.14840164  0.43755590    -0.02440
C509        C  0.89881087  0.87217731  0.69295231    -0.09070
C510        C  0.85216735  0.87890814  0.69542773     0.07130
C511        C  0.83264760  0.91475982  0.67120206    -0.02840
C512        C  0.85922636  0.94092461  0.64191546    -0.07290
C513        C  0.90511801  0.93111439  0.63575387     0.06240
C514        C  0.92541837  0.89792045  0.66335143    -0.02310
Br515      Br  0.98897511  0.88515982  0.66116131    -0.02010
H516        H  0.91406491  0.84473159  0.71161946     0.10150
H517        H  0.84328919  0.96667122  0.62154617     0.08170
Br518      Br  0.76915144  0.92686495  0.67478845    -0.02440
C519        C  0.89802277  0.11579861  0.39094815    -0.09070
C520        C  0.87910402  0.09857873  0.43087359     0.07130
C521        C  0.83431867  0.11039566  0.44219720    -0.02840
C522        C  0.80936205  0.13836009  0.41285781    -0.07290
C523        C  0.82865302  0.15494650  0.37242443     0.06240
C524        C  0.87362621  0.14277092  0.36171278    -0.02310
Br525      Br  0.90404695  0.15763792  0.30586940    -0.02010
H526        H  0.93236635  0.10729214  0.38157392     0.10150
H527        H  0.77491963  0.14697663  0.42155266     0.08170
Br528      Br  0.80512238  0.08733627  0.49537770    -0.02440
C529        C  0.12118985  0.90919870  0.62109572    -0.09070
C530        C  0.12725422  0.90582637  0.57440394     0.07130
C531        C  0.16274568  0.87969872  0.55682508    -0.02840
C532        C  0.19109030  0.85622521  0.58650828    -0.07290
C533        C  0.18451789  0.85889127  0.63366118     0.06240
C534        C  0.14900117  0.88606021  0.65077387    -0.02310
Br535      Br  0.13250848  0.88989501  0.71369710    -0.02010
H536        H  0.09350170  0.92902714  0.63460906     0.10150
H537        H  0.21775200  0.83528974  0.57273242     0.08170
Br538      Br  0.17250034  0.87423386  0.49298035    -0.02440
C539        C  0.89054543  0.79540775  0.39093888    -0.09070
C540        C  0.87559580  0.81085539  0.34885627     0.07130
C541        C  0.89167488  0.85265978  0.33239588    -0.02840
C542        C  0.92078723  0.87893968  0.35848142    -0.07290
C543        C  0.93415707  0.86523622  0.40190192     0.06240
C544        C  0.92010117  0.82182404  0.41733575    -0.02310
Br545      Br  0.93874354  0.79635276  0.47384833    -0.02010
H546        H  0.87866427  0.76301374  0.40358429     0.10150
H547        H  0.93097920  0.91166432  0.34528041     0.08170
Br548      Br  0.87052669  0.87885423  0.27705593    -0.02440
C549        C  0.11110064  0.60860283  0.11051657    -0.09070
C550        C  0.12956382  0.59159145  0.07029077     0.07130
C551        C  0.17542646  0.59956158  0.06014851    -0.02840
C552        C  0.20179281  0.62543999  0.09017838    -0.07290
C553        C  0.18285596  0.64214080  0.13052519     0.06240
C554        C  0.13718886  0.63345252  0.14056689    -0.02310
Br555      Br  0.10762138  0.65719376  0.19357716    -0.02010
H556        H  0.07583385  0.60263177  0.11862054     0.10150
H557        H  0.23685744  0.63240658  0.08218295     0.08170
Br558      Br  0.20238589  0.57807757  0.00514552    -0.02440
C559        C  0.12044355  0.31280062  0.10093958    -0.09070
C560        C  0.11225497  0.31239695  0.14781037     0.07130
C561        C  0.07342334  0.33506336  0.16441252    -0.02840
C562        C  0.04765952  0.36183325  0.13513586    -0.07290
C563        C  0.05967423  0.36646786  0.08943198     0.06240
C564        C  0.09471332  0.33931115  0.07191391    -0.02310
Br565      Br  0.11003414  0.33780924  0.00870288    -0.02010
H566        H  0.14859133  0.29416104  0.08680598     0.10150
H567        H  0.02015431  0.38165429  0.14891346     0.08170
Br568      Br  0.05525181  0.33450354  0.22679747    -0.02440
C569        C  0.07316800  0.40827554  0.83238318    -0.09070
C570        C  0.09609982  0.43965525  0.85987161     0.07130
C571        C  0.14316186  0.44482348  0.85513353    -0.02840
C572        C  0.16696038  0.41542025  0.82680197    -0.07290
C573        C  0.14451783  0.38041669  0.80347851     0.06240
C574        C  0.09695734  0.37853525  0.80445204    -0.02310
Br575      Br  0.06274173  0.33533086  0.76966110    -0.02010
H576        H  0.03684063  0.40460861  0.83497113     0.10150
H577        H  0.20343172  0.41796645  0.82560946     0.08170
Br578      Br  0.17666151  0.49048824  0.88734320    -0.02440
C579        C  0.87560593  0.64922530  0.14082670    -0.09070
C580        C  0.84756977  0.62776707  0.17235628     0.07130
C581        C  0.84790272  0.58005158  0.17525682    -0.02840
C582        C  0.87638589  0.55493462  0.14649979    -0.07290
C583        C  0.90434352  0.57675175  0.11444515     0.06240
C584        C  0.90331708  0.62490112  0.11194060    -0.02310
Br585      Br  0.93630679  0.66213219  0.06935867    -0.02010
H586        H  0.87506118  0.68582875  0.13753472     0.10150
H587        H  0.87651383  0.51831691  0.14917324     0.08170
Br588      Br  0.81195342  0.54791036  0.21882445    -0.02440
C589        C  0.85371125  0.64827299  0.88111417    -0.09070
C590        C  0.87010164  0.68595374  0.85734036     0.07130
C591        C  0.91654372  0.69668495  0.85885677    -0.02840
C592        C  0.94609283  0.66801675  0.88227216    -0.07290
C593        C  0.92947638  0.62879219  0.90357148     0.06240
C594        C  0.88279344  0.61988643  0.90408562    -0.02310
Br595      Br  0.85680197  0.56903827  0.93566326    -0.02010
H596        H  0.81800619  0.64000566  0.88059627     0.10150
H597        H  0.98197114  0.67526098  0.88228552     0.08170
Br598      Br  0.94134665  0.74728688  0.82645578    -0.02440
C599        C  0.84420464  0.43297408  0.90068787    -0.09070
C600        C  0.86609768  0.41127878  0.93655521     0.07130
C601        C  0.85518072  0.36588788  0.94636931    -0.02840
C602        C  0.82751137  0.34147628  0.91661000    -0.07290
C603        C  0.81049537  0.36179578  0.87717523     0.06240
C604        C  0.81639342  0.40889912  0.87121022    -0.02310
Br605      Br  0.78922866  0.44242095  0.82288275    -0.02010
H606        H  0.85100269  0.46845461  0.89386104     0.10150
H607        H  0.82238678  0.30558459  0.92255575     0.08170
Br608      Br  0.88133019  0.33404723  0.99617371    -0.02440
C609        C  0.36346201  0.13023906  0.34539596    -0.09070
C610        C  0.37004806  0.17761123  0.34362968     0.07130
C611        C  0.40774971  0.19618570  0.36686502    -0.02840
C612        C  0.43613172  0.16765112  0.39230222    -0.07290
C613        C  0.42763348  0.12074725  0.39510752     0.06240
C614        C  0.39145054  0.10220791  0.37037499    -0.02310
Br615      Br  0.37859666  0.03811025  0.36873572    -0.02010
H616        H  0.33566424  0.11426617  0.32766246     0.10150
H617        H  0.46395690  0.18233581  0.41106414     0.08170
Br618      Br  0.42275395  0.25955366  0.36533278    -0.02440
C619        C  0.64186086  0.91438685  0.40177174    -0.09070
C620        C  0.61059154  0.94254408  0.38080874     0.07130
C621        C  0.60561522  0.94008978  0.33360665    -0.02840
C622        C  0.63016505  0.90770961  0.30857775    -0.07290
C623        C  0.65959183  0.87715458  0.33010616     0.06240
C624        C  0.66621569  0.88212538  0.37752409    -0.02310
Br625      Br  0.70599788  0.84581458  0.41379447    -0.02010
H626        H  0.64560771  0.91588439  0.43820590     0.10150
H627        H  0.62484652  0.90536613  0.27246035     0.08170
Br628      Br  0.56338945  0.97783673  0.30276792    -0.02440
C629        C  0.62484387  0.15510463  0.56314915    -0.09070
C630        C  0.63120599  0.10815459  0.56047068     0.07130
C631        C  0.66812967  0.08876188  0.58316177    -0.02840
C632        C  0.69601142  0.11577735  0.61061406    -0.07290
C633        C  0.68706147  0.16209993  0.61676057     0.06240
C634        C  0.65214445  0.18206707  0.59115825    -0.02310
Br635      Br  0.63918392  0.24581811  0.59390883    -0.02010
H636        H  0.59671102  0.17043826  0.54577007     0.10150
H637        H  0.72279034  0.09989524  0.62953311     0.08170
Br638      Br  0.68050438  0.02505789  0.57908153    -0.02440
C639        C  0.59191953  0.83960153  0.66900659    -0.09070
C640        C  0.62776893  0.81733908  0.64693787     0.07130
C641        C  0.63269120  0.82241101  0.59968882    -0.02840
C642        C  0.60400631  0.85148731  0.57639670    -0.07290
C643        C  0.57058496  0.87632270  0.59918619     0.06240
C644        C  0.56365479  0.86911482  0.64565482    -0.02310
Br645      Br  0.51603181  0.89831042  0.67871963    -0.02010
H646        H  0.58702021  0.83579485  0.70509923     0.10150
H647        H  0.60933241  0.85636386  0.54046716     0.08170
Br648      Br  0.67775537  0.79133606  0.56457121    -0.02440
C649        C  0.36613865  0.14660367  0.64188922    -0.09070
C650        C  0.35000500  0.12970346  0.68320558     0.07130
C651        C  0.36422976  0.08665145  0.69790154    -0.02840
C652        C  0.39251528  0.06047955  0.66982729    -0.07290
C653        C  0.40635977  0.07703270  0.62741840     0.06240
C654        C  0.39395404  0.12090648  0.61421832    -0.02310
Br655      Br  0.41453222  0.14780782  0.55860750    -0.02010
H656        H  0.35648492  0.18009118  0.63060374     0.10150
H657        H  0.40228970  0.02679012  0.68029540     0.08170
Br658      Br  0.34324513  0.06105995  0.75368294    -0.02440
C659        C  0.40195574  0.86265654  0.40717629    -0.09070
C660        C  0.38145937  0.89607143  0.43398926     0.07130
C661        C  0.33403098  0.90088892  0.43165408    -0.02840
C662        C  0.30900287  0.87416198  0.40105022    -0.07290
C663        C  0.33029996  0.84238749  0.37247402     0.06240
C664        C  0.37763837  0.83632070  0.37681742    -0.02310
Br665      Br  0.41412010  0.79447106  0.34225663    -0.02010
H666        H  0.43813612  0.85779479  0.40824176     0.10150
H667        H  0.27283626  0.87881113  0.39919307     0.08170
Br668      Br  0.30121237  0.94219961  0.46957116    -0.02440
C669        C  0.31143818  0.64639882  0.91804677    -0.09070
C670        C  0.31370093  0.64022238  0.87100006     0.07130
C671        C  0.34188680  0.60664636  0.85306430    -0.02840
C672        C  0.36915414  0.58155717  0.88152484    -0.07290
C673        C  0.37009367  0.58939209  0.92861740     0.06240
C674        C  0.33923476  0.62112611  0.94707314    -0.02310
Br675      Br  0.33376944  0.63253072  0.01073263    -0.02010
H676        H  0.28965601  0.67230791  0.93203721     0.10150
H677        H  0.39122173  0.55690200  0.86583906     0.08170
Br678      Br  0.34636812  0.59550181  0.78907822    -0.02440
C679        C  0.32408427  0.39778995  0.13911184    -0.09070
C680        C  0.33623466  0.38904715  0.18432282     0.07130
C681        C  0.37332914  0.41341884  0.20269008    -0.02840
C682        C  0.39976436  0.44150422  0.17446215    -0.07290
C683        C  0.38923577  0.44629774  0.12850538     0.06240
C684        C  0.35030847  0.42537066  0.11139366    -0.02310
Br685      Br  0.33404378  0.42972061  0.04868740    -0.02010
H686        H  0.29527842  0.38103493  0.12386064     0.10150
H687        H  0.42984691  0.45764085  0.18781112     0.08170
Br688      Br  0.39082026  0.40908720  0.26488335    -0.02440
C689        C  0.62375707  0.69127733  0.09980256    -0.09070
C690        C  0.61476190  0.69648382  0.14604455     0.07130
C691        C  0.57703046  0.67403460  0.16496785    -0.02840
C692        C  0.55086671  0.64443350  0.13840091    -0.07290
C693        C  0.56259681  0.63585057  0.09316628     0.06240
C694        C  0.59817751  0.66118054  0.07338479    -0.02310
Br695      Br  0.61447976  0.65453542  0.01078849    -0.02010
H696        H  0.65288345  0.70799810  0.08493226     0.10150
H697        H  0.52355182  0.62552820  0.15405012     0.08170
Br698      Br  0.56264579  0.67985890  0.22799369    -0.02440
C699        C  0.66339524  0.40587031  0.07582668    -0.09070
C700        C  0.61915033  0.38969109  0.06808083     0.07130
C701        C  0.60775084  0.34525516  0.08294870    -0.02840
C702        C  0.63929073  0.31986623  0.10680173    -0.07290
C703        C  0.68183334  0.33769981  0.11721345     0.06240
C704        C  0.69440531  0.38045689  0.10056285    -0.02310
Br705      Br  0.75331926  0.40544741  0.11144738    -0.02010
H706        H  0.67355618  0.43920375  0.06422880     0.10150
H707        H  0.62940681  0.28698898  0.11997506     0.08170
Br708      Br  0.54947925  0.31694205  0.07546896    -0.02440
C709        C  0.57688496  0.60302928  0.85925738    -0.09070
C710        C  0.59836462  0.56554158  0.87827170     0.07130
C711        C  0.64323883  0.55603572  0.86631704    -0.02840
C712        C  0.66655465  0.58534870  0.83721789    -0.07290
C713        C  0.64600200  0.62479137  0.82020237     0.06240
C714        C  0.60000331  0.63280068  0.83083189    -0.02310
Br715      Br  0.56588577  0.68398499  0.81003731    -0.02010
H716        H  0.54219475  0.61044442  0.86826548     0.10150
H717        H  0.70146064  0.57796067  0.82929238     0.08170
Br718      Br  0.67367665  0.50324216  0.88808181    -0.02440
C719        C  0.38656196  0.30208067  0.88585345    -0.09070
C720        C  0.37187136  0.31936721  0.84422887     0.07130
C721        C  0.39030961  0.36097672  0.82898476    -0.02840
C722        C  0.41921720  0.38585833  0.85668985    -0.07290
C723        C  0.43102733  0.37080353  0.90008175     0.06240
C724        C  0.41593215  0.32722973  0.91375584    -0.02310
Br725      Br  0.43360800  0.29985113  0.96967472    -0.02010
H726        H  0.37383707  0.26966798  0.89758397     0.10150
H727        H  0.43115088  0.41836281  0.84439044     0.08170
Br728      Br  0.37816962  0.38665968  0.77051798    -0.02440
C729        C  0.14848067  0.43098659  0.38870458    -0.09070
C730        C  0.13320669  0.41459220  0.43077956     0.07130
C731        C  0.15195645  0.37397191  0.44749544    -0.02840
C732        C  0.18131554  0.34853766  0.41997943    -0.07290
C733        C  0.19300573  0.36344589  0.37643973     0.06240
C734        C  0.17776204  0.40579117  0.36163915    -0.02310
Br735      Br  0.19224686  0.42828372  0.30243183    -0.01210
H736        H  0.13568928  0.46260552  0.37551196     0.10150
H737        H  0.19256680  0.31564570  0.43138048     0.08170
Br738      Br  0.13560549  0.34897504  0.50509145    -0.02440
C739        C  0.82728202  0.60017350  0.64138463    -0.09070
C740        C  0.81033414  0.64205301  0.62643400     0.07130
C741        C  0.81690875  0.65414337  0.58052841    -0.02840
C742        C  0.84377438  0.62688420  0.55252450    -0.07290
C743        C  0.86298266  0.58690504  0.56886179     0.06240
C744        C  0.85337498  0.57281006  0.61317276    -0.02310
Br745      Br  0.87987157  0.51941799  0.63875699    -0.02010
H746        H  0.82251709  0.58954370  0.67608559     0.10150
H747        H  0.85078297  0.63758408  0.51819355     0.08170
Br748      Br  0.79101931  0.70704084  0.55346422    -0.02440
C749        C  0.10686494  0.56251654  0.66070841    -0.09070
C750        C  0.09522971  0.57826252  0.61745333     0.07130
C751        C  0.11179789  0.62084252  0.60319995    -0.02840
C752        C  0.13763645  0.64726181  0.63211957    -0.07290
C753        C  0.14927765  0.63241233  0.67553204     0.06240
C754        C  0.13373378  0.58929626  0.68988552    -0.02310
Br755      Br  0.14963888  0.56448691  0.74744598    -0.02010
H756        H  0.09475136  0.52969339  0.67193958     0.10150
H757        H  0.14919186  0.67995409  0.61991115     0.08170
Br758      Br  0.10336261  0.64449541  0.54324017    -0.02440
C759        C  0.88988599  0.30315129  0.60131898    -0.09070
C760        C  0.89282714  0.30771338  0.64840277     0.07130
C761        C  0.92573078  0.33734649  0.66662998    -0.02840
C762        C  0.95205841  0.36470064  0.63800050    -0.07290
C763        C  0.94545096  0.36386216  0.59108114     0.06240
C764        C  0.91555798  0.33114974  0.57267621    -0.02310
Br765      Br  0.90685553  0.32489376  0.50867470    -0.02010
H766        H  0.86493137  0.28046608  0.58676094     0.10150
H767        H  0.97502391  0.38930109  0.65274630     0.08170
Br768      Br  0.93389747  0.34367863  0.73066825    -0.02440
C769        C  0.08486663  0.69784637  0.35634777    -0.09070
C770        C  0.13155936  0.69143093  0.36167458     0.07130
C771        C  0.14685732  0.65916111  0.39294862    -0.02840
C772        C  0.11598166  0.63179378  0.41589149    -0.07290
C773        C  0.06955742  0.63600308  0.40861068     0.06240
C774        C  0.05371259  0.67030459  0.37985355    -0.02310
Br775      Br  0.99043369  0.67832421  0.36963156    -0.02010
H776        H  0.07273276  0.72221995  0.33203158     0.10150
H777        H  0.12841262  0.60586516  0.43844802     0.08170
Br778      Br  0.21001284  0.64955745  0.40380512    -0.02440
C779        C  0.92035149  0.42011733  0.32867460    -0.09070
C780        C  0.89872855  0.44575351  0.36238134     0.07130
C781        C  0.85109441  0.44693972  0.36330960    -0.02840
C782        C  0.82628210  0.41863665  0.33447358    -0.07290
C783        C  0.84817098  0.38881483  0.30458670     0.06240
C784        C  0.89556002  0.39175862  0.29990677    -0.02310
Br785      Br  0.92843248  0.35717633  0.25568708    -0.02010
H786        H  0.95685722  0.41970914  0.32659638     0.10150
H787        H  0.78985644  0.41780739  0.33767756     0.08170
Br788      Br  0.81806118  0.48569853  0.40377117    -0.02440
C789        C  0.36736942  0.54830145  0.35549053    -0.09070
C790        C  0.40624478  0.56669429  0.37582198     0.07130
C791        C  0.42078072  0.61064932  0.36279626    -0.02840
C792        C  0.39522141  0.63577745  0.33281362    -0.07290
C793        C  0.35450091  0.61911946  0.31508567     0.06240
C794        C  0.34137213  0.57404229  0.32545296    -0.02310
Br795      Br  0.28887222  0.54531323  0.30009659    -0.02010
H796        H  0.35621846  0.51436470  0.36415428     0.10150
H797        H  0.40669338  0.66983337  0.32503591     0.08170
Br798      Br  0.47479561  0.64036087  0.38421303    -0.02440
C799        C  0.60599803  0.43423132  0.66370246    -0.09070
C800        C  0.60975439  0.42723912  0.61675069     0.07130
C801        C  0.64274749  0.39685624  0.59995885    -0.02840
C802        C  0.67095545  0.37472918  0.62983531    -0.07290
C803        C  0.66618115  0.38058762  0.67636716     0.06240
C804        C  0.63385584  0.41071392  0.69363851    -0.02310
Br805      Br  0.62652446  0.41987059  0.75741074    -0.02010
H806        H  0.58082111  0.45716468  0.67711309     0.10150
H807        H  0.69496610  0.35032702  0.61671706     0.08170
Br808      Br  0.64801466  0.37848469  0.53757433    -0.02440
C809        C  0.39283436  0.34906962  0.58934151    -0.09070
C810        C  0.37608226  0.38160783  0.55941961     0.07130
C811        C  0.32899451  0.38781041  0.55628325    -0.02840
C812        C  0.29977878  0.36339348  0.58504012    -0.07290
C813        C  0.31720419  0.33270161  0.61656791     0.06240
C814        C  0.36391224  0.32467416  0.61760281    -0.02310
Br815      Br  0.39008417  0.28270705  0.65940733    -0.02010
H816        H  0.42891697  0.34410272  0.59223307     0.10150
H817        H  0.26383881  0.36976634  0.58413668     0.08170
Br818      Br  0.30361901  0.43225527  0.51683527    -0.02440
C819        C  0.65936593  0.60729037  0.43935230    -0.09070
C820        C  0.62096222  0.58581677  0.42170449     0.07130
C821        C  0.61192810  0.58796837  0.37525471    -0.02840
C822        C  0.64016103  0.61307109  0.34717338    -0.07290
C823        C  0.67774115  0.63631506  0.36463860     0.06240
C824        C  0.68797850  0.63252841  0.41104189    -0.02310
Br825      Br  0.74128908  0.65909761  0.43688603    -0.02010
H826        H  0.66689863  0.60461944  0.47503238     0.10150
H827        H  0.63177272  0.61555433  0.31165220     0.08170
Br828      Br  0.56107677  0.55731634  0.34864326    -0.02440
C829        C  0.38317029  0.60330078  0.60639423    -0.09070
C830        C  0.42986462  0.61030858  0.60539855     0.07130
C831        C  0.44850909  0.64856522  0.62714990    -0.02840
C832        C  0.42007080  0.67884356  0.65028065    -0.07290
C833        C  0.37301009  0.67213328  0.65058114     0.06240
C834        C  0.35470143  0.63374763  0.62831160    -0.02310
Br835      Br  0.29136725  0.61877307  0.62884243    -0.02010
H836        H  0.36862984  0.57399992  0.58951356     0.10150
H837        H  0.43464079  0.70770165  0.66780559     0.08170
Br838      Br  0.51233587  0.65964975  0.62731706    -0.02440
C839        C  0.57827889  0.32459377  0.41390124    -0.09070
C840        C  0.55599100  0.36144006  0.39413025     0.07130
C841        C  0.56264999  0.37009786  0.34789676    -0.02840
C842        C  0.59368930  0.34428607  0.32314315    -0.07290
C843        C  0.61861401  0.30939114  0.34355678     0.06240
C844        C  0.60895721  0.29821160  0.38899787    -0.02310
Br845      Br  0.64016091  0.25122524  0.42064760    -0.02010
H846        H  0.57396212  0.31811952  0.44969149     0.10150
H847        H  0.60010228  0.35318440  0.28818935     0.08170
Br848      Br  0.53494881  0.42078780  0.31864742    -0.02440
loop_ 
_geom_bond_atom_site_label_1 
_geom_bond_atom_site_label_2 
_geom_bond_distance 
_geom_bond_site_symmetry_2 
_ccdc_geom_bond_type 
Zn1           O5   1.991       .  S
Zn1           O6   2.069       .  S
Zn1          O10   2.058       .  S
Zn1          O17   2.063       .  S
Zn2           O5   1.926       .  S
Zn2           O7   1.988       .  S
Zn2           O9   1.981       .  S
Zn2          O13   1.959       .  S
Zn3           O5   1.938       .  S
Zn3           O8   1.966       .  S
Zn3          O11   2.001       .  S
Zn3          O14   2.008       .  S
Zn4           O5   1.942       .  S
Zn4          O12   2.022       .  S
Zn4          O15   2.028       .  S
Zn4          O16   1.986       .  S
O6           C18   1.278       .  A
O7           C19   1.267       .  A
O8           C20   1.267       .  A
O9           C18   1.268       .  A
O10          C20   1.279       .  A
O11          C19   1.270       .  A
O12          C21   1.273       .  A
O13          C22   1.266       .  A
O14          C21   1.270       .  A
O15          C22   1.274       .  A
O16          C23   1.272       .  A
O17          C23   1.279       .  A
C18         C840   1.476       .  S
C19         C820   1.456       .  S
C20         C790   1.484       .  S
C21         C830   1.468       .  S
C22         C800   1.472       .  S
C23         C810   1.475       .  S
Zn24         O28   1.944   1_455  S
Zn24         O29   1.986       .  S
Zn24         O33   2.012       .  S
Zn24         O40   2.024   1_455  S
Zn25         O28   1.996   1_455  S
Zn25         O30   2.063       .  S
Zn25         O32   2.063       .  S
Zn25         O36   2.068       .  S
Zn26         O28   1.948       .  S
Zn26         O31   2.022   1_655  S
Zn26         O34   1.975   1_655  S
Zn26         O37   1.995       .  S
Zn27         O28   1.943       .  S
Zn27         O35   2.018       .  S
Zn27         O38   2.003       .  S
Zn27         O39   2.007       .  S
O29          C41   1.272       .  A
O30          C42   1.278       .  A
O31          C43   1.270       .  A
O32          C41   1.278       .  A
O33          C43   1.271       .  A
O34          C42   1.270       .  A
O35          C44   1.272       .  A
O36          C45   1.280   1_455  A
O37          C44   1.270       .  A
O38          C45   1.272       .  A
O39          C46   1.273       .  A
O40          C46   1.275       .  A
C41         C730   1.489       .  S
C42         C750   1.479       .  S
C43         C773   1.470       .  S
C44         C743   1.466       .  S
C45         C763   1.484       .  S
C46         C780   1.479       .  S
Zn47         O51   1.945       .  S
Zn47         O52   2.042   1_554  S
Zn47         O56   1.987       .  S
Zn47         O63   2.000       .  S
Zn48         O51   1.920   1_556  S
Zn48         O53   1.954       .  S
Zn48         O55   1.987       .  S
Zn48         O59   1.976       .  S
Zn49         O51   1.996       .  S
Zn49         O54   2.052       .  S
Zn49         O57   2.078   1_554  S
Zn49         O60   2.062       .  S
Zn50         O51   1.957       .  S
Zn50         O58   2.011       .  S
Zn50         O61   2.025   1_554  S
Zn50         O62   2.028       .  S
O52          C64   1.272       .  A
O53          C65   1.268       .  A
O54          C66   1.277       .  A
O55          C64   1.270       .  A
O56          C66   1.271       .  A
O57          C65   1.278       .  A
O58          C67   1.274       .  A
O59          C68   1.268       .  A
O60          C67   1.279       .  A
O61          C68   1.272       .  A
O62          C69   1.276       .  A
O63          C69   1.271       .  A
C64         C723   1.494       .  S
C65         C673   1.496       .  S
C66         C683   1.467       .  S
C67         C693   1.483       .  S
C68         C710   1.468       .  S
C69         C700   1.490       .  S
Zn70         O74   2.002       .  S
Zn70         O75   2.077       .  S
Zn70         O79   2.080       .  S
Zn70         O86   2.066       .  S
Zn71         O74   1.952       .  S
Zn71         O76   2.039   1_545  S
Zn71         O78   1.988       .  S
Zn71         O82   1.997       .  S
Zn72         O74   1.926   1_565  S
Zn72         O77   1.964       .  S
Zn72         O80   1.974       .  S
Zn72         O83   1.990       .  S
Zn73         O74   1.961       .  S
Zn73         O81   2.020   1_545  S
Zn73         O84   2.025       .  S
Zn73         O85   2.003       .  S
O75          C87   1.280       .  A
O76          C88   1.272       .  A
O77          C89   1.267       .  A
O78          C87   1.271       .  A
O79          C89   1.279   1_545  A
O80          C88   1.270       .  A
O81          C90   1.272       .  A
O82          C91   1.273       .  A
O83          C90   1.269       .  A
O84          C91   1.273       .  A
O85          C92   1.273       .  A
O86          C92   1.280       .  A
C87         C613   1.483       .  S
C88         C660   1.489       .  S
C89         C620   1.475       .  S
C90         C643   1.473       .  S
C91         C653   1.466       .  S
C92         C630   1.478       .  S
Zn93         O97   2.002   1_654  S
Zn93         O98   2.043   1_554  S
Zn93        O102   2.059       .  S
Zn93        O109   2.054       .  S
Zn94         O97   1.924   1_655  S
Zn94         O99   1.990       .  S
Zn94        O101   1.960       .  S
Zn94        O105   1.994   1_655  S
Zn95         O97   1.921   1_554  S
Zn95        O100   1.941   1_455  S
Zn95        O103   2.008   1_454  S
Zn95        O106   1.961       .  S
Zn96         O97   1.942       .  S
Zn96        O104   2.031   1_556  S
Zn96        O107   2.008       .  S
Zn96        O108   1.998   1_556  S
O98         C110   1.275       .  A
O99         C111   1.269       .  A
O100        C112   1.262       .  A
O101        C110   1.269       .  A
O102        C112   1.277       .  A
O103        C111   1.267       .  A
O104        C113   1.272       .  A
O105        C114   1.271       .  A
O106        C113   1.268       .  A
O107        C114   1.274       .  A
O108        C115   1.273       .  A
O109        C115   1.279   1_655  A
C110        C600   1.471       .  S
C111        C593   1.464       .  S
C112        C583   1.486       .  S
C113        C550   1.465       .  S
C114        C570   1.469       .  S
C115        C563   1.482       .  S
Zn116       O120   1.930       .  S
Zn116       O121   1.988       .  S
Zn116       O125   2.015   1_665  S
Zn116       O132   1.971   1_565  S
Zn117       O120   1.948       .  S
Zn117       O122   2.009   1_655  S
Zn117       O124   2.035       .  S
Zn117       O128   1.991       .  S
Zn118       O120   1.942   1_445  S
Zn118       O123   1.995       .  S
Zn118       O126   2.009   1_545  S
Zn118       O129   1.980       .  S
Zn119       O120   2.000   1_545  S
Zn119       O127   2.044       .  S
Zn119       O130   2.041   1_545  S
Zn119       O131   2.071       .  S
O121        C133   1.272       .  A
O122        C134   1.272       .  A
O123        C135   1.270       .  A
O124        C133   1.273       .  A
O125        C135   1.270       .  A
O126        C134   1.271       .  A
O127        C136   1.275   1_655  A
O128        C137   1.271       .  A
O129        C136   1.269       .  A
O130        C137   1.277       .  A
O131        C138   1.278       .  A
O132        C138   1.271       .  A
C133        C543   1.492       .  S
C134        C530   1.463       .  S
C135        C500   1.464       .  S
C136        C493   1.468       .  S
C137        C513   1.477       .  S
C138        C520   1.485       .  S
Zn139       O143   1.930   1_565  S
Zn139       O144   1.993   1_554  S
Zn139       O148   1.999   1_565  S
Zn139       O155   1.954       .  S
Zn140       O143   1.929   1_556  S
Zn140       O145   1.971       .  S
Zn140       O147   2.015   1_545  S
Zn140       O151   1.954   1_545  S
Zn141       O143   1.949       .  S
Zn141       O146   2.012       .  S
Zn141       O149   2.036   1_554  S
Zn141       O152   2.005       .  S
Zn142       O143   2.003   1_565  S
Zn142       O150   2.051   1_565  S
Zn142       O153   2.073   1_554  S
Zn142       O154   2.066       .  S
O144        C156   1.270       .  A
O145        C157   1.269       .  A
O146        C158   1.274       .  A
O147        C156   1.269       .  A
O148        C158   1.269       .  A
O149        C157   1.275       .  A
O150        C159   1.278       .  A
O151        C160   1.267       .  A
O152        C159   1.274       .  A
O153        C160   1.278       .  A
O154        C161   1.278       .  A
O155        C161   1.266       .  A
C156        C480   1.480       .  S
C157        C473   1.467       .  S
C158        C443   1.483       .  S
C159        C430   1.475       .  S
C160        C460   1.478       .  S
C161        C453   1.479       .  S
Zn162       O166   1.939   1_644  S
Zn162       O167   2.019   1_545  S
Zn162       O171   1.978   1_554  S
Zn162       O178   1.978       .  S
Zn163       O166   1.931   1_554  S
Zn163       O168   1.997   1_554  S
Zn163       O170   2.001   1_455  S
Zn163       O174   1.961       .  S
Zn164       O166   1.966   1_545  S
Zn164       O169   2.051   1_455  S
Zn164       O172   2.028   1_545  S
Zn164       O175   2.006       .  S
Zn165       O166   2.007   1_544  S
Zn165       O173   2.064       .  S
Zn165       O176   2.087   1_545  S
Zn165       O177   2.069       .  S
O167        C179   1.269       .  A
O168        C180   1.270       .  A
O169        C181   1.274       .  A
O170        C179   1.271       .  A
O171        C181   1.272       .  A
O172        C180   1.275       .  A
O173        C182   1.280   1_554  A
O174        C183   1.264       .  A
O175        C182   1.274       .  A
O176        C183   1.280       .  A
O177        C184   1.278   1_455  A
O178        C184   1.270       .  A
C179        C420   1.471       .  S
C180        C403   1.473       .  S
C181        C410   1.492       .  S
C182        C393   1.479       .  S
C183        C383   1.496       .  S
C184        C373   1.477       .  S
Zn185       O189   1.949       .  S
Zn185       O190   2.007       .  S
Zn185       O194   1.978       .  S
Zn185       O201   2.027       .  S
Zn186       O189   1.952       .  S
Zn186       O191   1.991       .  S
Zn186       O193   1.988       .  S
Zn186       O197   2.032       .  S
Zn187       O189   2.007       .  S
Zn187       O192   2.079       .  S
Zn187       O195   2.074       .  S
Zn187       O198   2.073       .  S
Zn188       O189   1.915       .  S
Zn188       O196   1.956       .  S
Zn188       O199   1.972       .  S
Zn188       O200   1.989       .  S
O190        C202   1.272       .  A
O191        C203   1.271       .  A
O192        C204   1.281       .  A
O193        C202   1.271       .  A
O194        C204   1.268       .  A
O195        C203   1.280       .  A
O196        C205   1.268       .  A
O197        C206   1.272       .  A
O198        C205   1.278       .  A
O199        C206   1.270       .  A
O200        C207   1.268       .  A
O201        C207   1.271       .  A
C202        C823   1.470       .  S
C203        C690   1.475       .  S
C204        C623   1.498       .  S
C205        C423   1.482       .  S
C206        C580   1.475       .  S
C207        C540   1.472       .  S
Zn208       O212   1.948       .  S
Zn208       O213   1.992       .  S
Zn208       O217   2.021       .  S
Zn208       O224   1.998       .  S
Zn209       O212   1.936       .  S
Zn209       O214   2.007       .  S
Zn209       O216   2.000       .  S
Zn209       O220   1.994       .  S
Zn210       O212   1.919       .  S
Zn210       O215   1.982       .  S
Zn210       O218   1.990       .  S
Zn210       O221   1.946       .  S
Zn211       O212   1.992       .  S
Zn211       O219   2.088       .  S
Zn211       O222   2.074       .  S
Zn211       O223   2.073       .  S
O213        C225   1.270       .  A
O214        C226   1.271       .  A
O215        C227   1.268       .  A
O216        C225   1.271       .  A
O217        C227   1.270       .  A
O218        C226   1.268       .  A
O219        C228   1.281       .  A
O220        C229   1.272       .  A
O221        C228   1.265       .  A
O222        C229   1.280       .  A
O223        C230   1.281       .  A
O224        C230   1.272       .  A
C225        C803   1.454       .  S
C226        C603   1.479       .  S
C227        C470   1.463       .  S
C228        C413   1.487       .  S
C229        C760   1.481       .  S
C230        C633   1.486       .  S
Zn231       O235   1.949       .  S
Zn231       O236   2.022       .  S
Zn231       O240   2.028       .  S
Zn231       O247   1.990       .  S
Zn232       O235   1.935       .  S
Zn232       O237   1.989       .  S
Zn232       O239   1.998       .  S
Zn232       O243   1.982       .  S
Zn233       O235   1.937       .  S
Zn233       O238   1.995       .  S
Zn233       O241   2.023       .  S
Zn233       O244   1.963       .  S
Zn234       O235   2.002       .  S
Zn234       O242   2.068       .  S
Zn234       O245   2.042       .  S
Zn234       O246   2.047       .  S
O236        C248   1.274       .  A
O237        C249   1.269       .  A
O238        C250   1.271       .  A
O239        C248   1.270       .  A
O240        C250   1.274       .  A
O241        C249   1.272       .  A
O242        C251   1.277       .  A
O243        C252   1.269       .  A
O244        C251   1.269       .  A
O245        C252   1.276       .  A
O246        C253   1.276       .  A
O247        C253   1.271       .  A
C248        C483   1.463       .  S
C249        C533   1.480       .  S
C250        C833   1.476       .  S
C251        C753   1.487       .  S
C252        C400   1.466       .  S
C253        C670   1.469       .  S
Zn254       O258   1.941       .  S
Zn254       O259   2.022       .  S
Zn254       O263   2.001       .  S
Zn254       O270   1.969       .  S
Zn255       O258   1.942       .  S
Zn255       O260   2.000       .  S
Zn255       O262   2.011       .  S
Zn255       O266   1.979       .  S
Zn256       O258   1.947       .  S
Zn256       O261   2.028       .  S
Zn256       O264   1.998       .  S
Zn256       O267   2.004       .  S
Zn257       O258   1.995       .  S
Zn257       O265   2.060       .  S
Zn257       O268   2.062       .  S
Zn257       O269   2.052       .  S
O259        C271   1.270       .  A
O260        C272   1.272       .  A
O261        C273   1.273       .  A
O262        C271   1.271       .  A
O263        C273   1.272       .  A
O264        C272   1.272       .  A
O265        C274   1.279       .  A
O266        C275   1.269       .  A
O267        C274   1.273       .  A
O268        C275   1.278       .  A
O269        C276   1.277       .  A
O270        C276   1.271       .  A
C271        C813   1.470       .  S
C272        C573   1.471       .  S
C273        C490   1.478       .  S
C274        C390   1.480       .  S
C275        C720   1.486       .  S
C276        C650   1.474       .  S
Zn277       O281   1.925       .  S
Zn277       O282   1.988       .  S
Zn277       O286   1.954       .  S
Zn277       O293   2.007       .  S
Zn278       O281   1.939       .  S
Zn278       O283   1.978       .  S
Zn278       O285   2.020       .  S
Zn278       O289   1.985       .  S
Zn279       O281   2.004       .  S
Zn279       O284   2.066       .  S
Zn279       O287   2.064       .  S
Zn279       O290   2.062       .  S
Zn280       O281   1.937       .  S
Zn280       O288   1.988       .  S
Zn280       O291   2.019       .  S
Zn280       O292   2.008       .  S
O282        C294   1.271       .  A
O283        C295   1.270       .  A
O284        C296   1.279       .  A
O285        C294   1.270       .  A
O286        C296   1.264       .  A
O287        C295   1.278       .  A
O288        C297   1.271       .  A
O289        C298   1.271       .  A
O290        C297   1.278       .  A
O291        C298   1.273       .  A
O292        C299   1.272       .  A
O293        C299   1.269       .  A
C294        C793   1.487       .  S
C295        C770   1.472       .  S
C296        C663   1.491       .  S
C297        C380   1.473       .  S
C298        C553   1.462       .  S
C299        C450   1.469       .  S
Zn300       O304   1.945       .  S
Zn300       O305   2.030       .  S
Zn300       O309   1.975       .  S
Zn300       O316   1.997       .  S
Zn301       O304   1.948       .  S
Zn301       O306   1.983       .  S
Zn301       O308   2.010       .  S
Zn301       O312   2.018       .  S
Zn302       O304   2.002       .  S
Zn302       O307   2.072       .  S
Zn302       O310   2.061       .  S
Zn302       O313   2.064       .  S
Zn303       O304   1.951       .  S
Zn303       O311   2.004       .  S
Zn303       O314   2.004       .  S
Zn303       O315   2.027       .  S
O305        C317   1.271       .  A
O306        C318   1.269       .  A
O307        C319   1.279       .  A
O308        C317   1.272       .  A
O309        C319   1.269       .  A
O310        C318   1.278       .  A
O311        C320   1.274       .  A
O312        C321   1.273       .  A
O313        C320   1.279       .  A
O314        C321   1.272       .  A
O315        C322   1.274       .  A
O316        C322   1.271       .  A
C317        C370   1.473       .  S
C318        C433   1.476       .  S
C319        C523   1.487       .  S
C320        C843   1.490       .  S
C321        C703   1.466       .  S
C322        C783   1.479       .  S
Zn323       O327   1.922       .  S
Zn323       O328   1.961       .  S
Zn323       O332   2.002       .  S
Zn323       O339   1.994       .  S
Zn324       O327   2.002       .  S
Zn324       O329   2.058       .  S
Zn324       O331   2.077       .  S
Zn324       O335   2.088       .  S
Zn325       O327   1.940       .  S
Zn325       O330   2.033       .  S
Zn325       O333   1.989       .  S
Zn325       O336   1.996       .  S
Zn326       O327   1.944       .  S
Zn326       O334   2.022       .  S
Zn326       O337   1.982       .  S
Zn326       O338   2.017       .  S
O328        C340   1.270       .  A
O329        C341   1.278       .  A
O330        C342   1.272       .  A
O331        C340   1.279       .  A
O332        C342   1.272       .  A
O333        C341   1.272       .  A
O334        C343   1.273       .  A
O335        C344   1.281       .  A
O336        C343   1.273       .  A
O337        C344   1.272       .  A
O338        C345   1.272       .  A
O339        C345   1.269       .  A
C340        C680   1.496       .  S
C341        C733   1.469       .  S
C342        C560   1.493       .  S
C343        C503   1.480       .  S
C344        C610   1.502       .  S
C345        C440   1.463       .  S
Zn346       O350   1.924       .  S
Zn346       O351   1.951       .  S
Zn346       O355   1.986       .  S
Zn346       O362   2.000       .  S
Zn347       O350   2.001       .  S
Zn347       O352   2.048       .  S
Zn347       O354   2.074       .  S
Zn347       O358   2.044       .  S
Zn348       O350   1.935       .  S
Zn348       O353   2.006       .  S
Zn348       O356   1.968       .  S
Zn348       O359   1.995       .  S
Zn349       O350   1.943       .  S
Zn349       O357   2.025       .  S
Zn349       O360   1.987       .  S
Zn349       O361   2.008       .  S
O351        C363   1.268       .  A
O352        C364   1.276       .  A
O353        C365   1.270       .  A
O354        C363   1.278       .  A
O355        C365   1.267       .  A
O356        C364   1.270       .  A
O357        C366   1.273       .  A
O358        C367   1.276       .  A
O359        C366   1.272       .  A
O360        C367   1.271       .  A
O361        C368   1.271       .  A
O362        C368   1.271       .  A
C363        C463   1.488       .  S
C364        C590   1.468       .  S
C365        C713   1.485       .  S
C366        C740   1.488       .  S
C367        C510   1.466       .  S
C368        C640   1.481       .  S
C369        C370   1.398       .  A
C369        C374   1.391       .  A
C369        H376   1.084       .  S
C370        C371   1.410       .  A
C371        C372   1.411       .  A
C371       Br378   1.917       .  S
C372        C373   1.407       .  A
C372        H377   1.083       .  S
C373        C374   1.410       .  A
C374       Br375   1.924       .  S
C379        C380   1.394       .  A
C379        C384   1.392       .  A
C379        H386   1.085       .  S
C380        C381   1.407       .  A
C381        C382   1.409       .  A
C381       Br388   1.916       .  S
C382        C383   1.411       .  A
C382        H387   1.083       .  S
C383        C384   1.426       .  A
C384       Br385   1.928       .  S
C389        C390   1.403       .  A
C389        C394   1.402       .  A
C389        H396   1.083       .  S
C390        C391   1.413       .  A
C391        C392   1.402       .  A
C391       Br398   1.920       .  S
C392        C393   1.402       .  A
C392        H397   1.083       .  S
C393        C394   1.411       .  A
C394       Br395   1.919       .  S
C399        C400   1.404       .  A
C399        C404   1.399       .  A
C399        H406   1.083       .  S
C400        C401   1.404       .  A
C401        C402   1.398       .  A
C401       Br408   1.920       .  S
C402        C403   1.406       .  A
C402        H407   1.084       .  S
C403        C404   1.407       .  A
C404       Br405   1.919       .  S
C409        C410   1.402       .  A
C409        C414   1.385       .  A
C409        H416   1.083       .  S
C410        C411   1.417       .  A
C411        C412   1.412       .  A
C411       Br418   1.918       .  S
C412        C413   1.408       .  A
C412        H417   1.083       .  S
C413        C414   1.418       .  A
C414       Br415   1.930       .  S
C419        C420   1.407       .  A
C419        C424   1.412       .  A
C419        H426   1.085       .  S
C420        C421   1.405       .  A
C421        C422   1.385       .  A
C421       Br428   1.924       .  S
C422        C423   1.403       .  A
C422        H427   1.085       .  S
C423        C424   1.413       .  A
C424       Br425   1.916       .  S
C429        C430   1.401       .  A
C429        C434   1.400       .  A
C429        H436   1.083       .  S
C430        C431   1.411       .  A
C431        C432   1.401       .  A
C431       Br438   1.920       .  S
C432        C433   1.402       .  A
C432        H437   1.083       .  S
C433        C434   1.413       .  A
C434       Br435   1.920       .  S
C439        C440   1.399       .  A
C439        C444   1.402       .  A
C439        H446   1.083       .  S
C440        C441   1.404       .  A
C441        C442   1.392       .  A
C441       Br448   1.922       .  S
C442        C443   1.406       .  A
C442        H447   1.083       .  S
C443        C444   1.419       .  A
C444       Br445   1.922       .  S
C449        C450   1.397       .  A
C449        C454   1.389       .  A
C449        H456   1.084       .  S
C450        C451   1.409       .  A
C451        C452   1.407       .  A
C451       Br458   1.917       .  S
C452        C453   1.408       .  A
C452        H457   1.083       .  S
C453        C454   1.415       .  A
C454       Br455   1.927       .  S
C459        C460   1.408       .  A
C459        C464   1.413       .  A
C459        H466   1.083       .  S
C460        C461   1.410       .  A
C461        C462   1.383       .  A
C461       Br468   1.928       .  S
C462        C463   1.405       .  A
C462        H467   1.084       .  S
C463        C464   1.416       .  A
C464       Br465   1.917       .  S
C469        C470   1.405       .  A
C469        C474   1.405       .  A
C469        H476   1.083       .  S
C470        C471   1.405       .  A
C471        C472   1.388       .  A
C471       Br478   1.922       .  S
C472        C473   1.401       .  A
C472        H477   1.084       .  S
C473        C474   1.408       .  A
C474       Br475   1.917       .  S
C479        C480   1.406       .  A
C479        C484   1.390       .  A
C479        H486   1.084       .  S
C480        C481   1.416       .  A
C481        C482   1.405       .  A
C481       Br488   1.919       .  S
C482        C483   1.402       .  A
C482        H487   1.083       .  S
C483        C484   1.403       .  A
C484       Br485   1.922       .  S
C489        C490   1.406       .  A
C489        C494   1.402       .  A
C489        H496   1.083       .  S
C490        C491   1.411       .  A
C491        C492   1.396       .  A
C491       Br498   1.921       .  S
C492        C493   1.401       .  A
C492        H497   1.084       .  S
C493        C494   1.407       .  A
C494       Br495   1.918       .  S
C499        C500   1.401       .  A
C499        C504   1.405       .  A
C499        H506   1.083       .  S
C500        C501   1.405       .  A
C501        C502   1.390       .  A
C501       Br508   1.923       .  S
C502        C503   1.405       .  A
C502        H507   1.083       .  S
C503        C504   1.416       .  A
C504       Br505   1.919       .  S
C509        C510   1.399       .  A
C509        C514   1.398       .  A
C509        H516   1.084       .  S
C510        C511   1.408       .  A
C511        C512   1.399       .  A
C511       Br518   1.919       .  S
C512        C513   1.402       .  A
C512        H517   1.083       .  S
C513        C514   1.416       .  A
C514       Br515   1.923       .  S
C519        C520   1.401       .  A
C519        C524   1.386       .  A
C519        H526   1.084       .  S
C520        C521   1.412       .  A
C521        C522   1.414       .  A
C521       Br528   1.917       .  S
C522        C523   1.411       .  A
C522        H527   1.083       .  S
C523        C524   1.416       .  A
C524       Br525   1.929       .  S
C529        C530   1.396       .  A
C529        C534   1.390       .  A
C529        H536   1.084       .  S
C530        C531   1.404       .  A
C531        C532   1.405       .  A
C531       Br538   1.916       .  S
C532        C533   1.410       .  A
C532        H537   1.083       .  S
C533        C534   1.417       .  A
C534       Br535   1.926       .  S
C539        C540   1.402       .  A
C539        C544   1.406       .  A
C539        H546   1.083       .  S
C540        C541   1.406       .  A
C541        C542   1.390       .  A
C541       Br548   1.922       .  S
C542        C543   1.407       .  A
C542        H547   1.083       .  S
C543        C544   1.420       .  A
C544       Br545   1.920       .  S
C549        C550   1.400       .  A
C549        C554   1.385       .  A
C549        H556   1.084       .  S
C550        C551   1.408       .  A
C551        C552   1.405       .  A
C551       Br558   1.917       .  S
C552        C553   1.406       .  A
C552        H557   1.083       .  S
C553        C554   1.406       .  A
C554       Br555   1.925       .  S
C559        C560   1.407       .  A
C559        C564   1.396       .  A
C559        H566   1.083       .  S
C560        C561   1.419       .  A
C561        C562   1.405       .  A
C561       Br568   1.921       .  S
C562        C563   1.404       .  A
C562        H567   1.083       .  S
C563        C564   1.411       .  A
C564       Br565   1.923       .  S
C569        C570   1.404       .  A
C569        C574   1.395       .  A
C569        H576   1.083       .  S
C570        C571   1.408       .  A
C571        C572   1.396       .  A
C571       Br578   1.920       .  S
C572        C573   1.405       .  A
C572        H577   1.083       .  S
C573        C574   1.410       .  A
C574       Br575   1.922       .  S
C579        C580   1.397       .  A
C579        C584   1.384       .  A
C579        H586   1.084       .  S
C580        C581   1.410       .  A
C581        C582   1.408       .  A
C581       Br588   1.918       .  S
C582        C583   1.411       .  A
C582        H587   1.083       .  S
C583        C584   1.422       .  A
C584       Br585   1.932       .  S
C589        C590   1.400       .  A
C589        C594   1.387       .  A
C589        H596   1.084       .  S
C590        C591   1.410       .  A
C591        C592   1.407       .  A
C591       Br598   1.917       .  S
C592        C593   1.404       .  A
C592        H597   1.083       .  S
C593        C594   1.406       .  A
C594       Br595   1.924       .  S
C599        C600   1.404       .  A
C599        C604   1.392       .  A
C599        H606   1.084       .  S
C600        C601   1.406       .  A
C601        C602   1.400       .  A
C601       Br608   1.919       .  S
C602        C603   1.410       .  A
C602        H607   1.083       .  S
C603        C604   1.410       .  A
C604       Br605   1.923       .  S
C609        C610   1.410       .  A
C609        C614   1.391       .  A
C609        H616   1.083       .  S
C610        C611   1.420       .  A
C611        C612   1.414       .  A
C611       Br618   1.918       .  S
C612        C613   1.407       .  A
C612        H617   1.083       .  S
C613        C614   1.407       .  A
C614       Br615   1.926       .  S
C619        C620   1.396       .  A
C619        C624   1.393       .  A
C619        H626   1.085       .  S
C620        C621   1.407       .  A
C621        C622   1.410       .  A
C621       Br628   1.916       .  S
C622        C623   1.413       .  A
C622        H627   1.083       .  S
C623        C624   1.424       .  A
C624       Br625   1.929       .  S
C629        C630   1.400       .  A
C629        C634   1.402       .  A
C629        H636   1.083       .  S
C630        C631   1.411       .  A
C631        C632   1.403       .  A
C631       Br638   1.919       .  S
C632        C633   1.404       .  A
C632        H637   1.083       .  S
C633        C634   1.417       .  A
C634       Br635   1.922       .  S
C639        C640   1.409       .  A
C639        C644   1.398       .  A
C639        H646   1.083       .  S
C640        C641   1.413       .  A
C641        C642   1.397       .  A
C641       Br648   1.923       .  S
C642        C643   1.404       .  A
C642        H647   1.084       .  S
C643        C644   1.406       .  A
C644       Br645   1.920       .  S
C649        C650   1.403       .  A
C649        C654   1.386       .  A
C649        H656   1.084       .  S
C650        C651   1.411       .  A
C651        C652   1.409       .  A
C651       Br658   1.917       .  S
C652        C653   1.407       .  A
C652        H657   1.083       .  S
C653        C654   1.404       .  A
C654       Br655   1.924       .  S
C659        C660   1.402       .  A
C659        C664   1.386       .  A
C659        H666   1.083       .  S
C660        C661   1.415       .  A
C661        C662   1.409       .  A
C661       Br668   1.919       .  S
C662        C663   1.410       .  A
C662        H667   1.082       .  S
C663        C664   1.421       .  A
C664       Br665   1.932       .  S
C669        C670   1.405       .  A
C669        C674   1.410       .  A
C669        H676   1.083       .  S
C670        C671   1.400       .  A
C671        C672   1.388       .  A
C671       Br678   1.925       .  S
C672        C673   1.412       .  A
C672        H677   1.083       .  S
C673        C674   1.418       .  A
C674       Br675   1.919   1_556  S
C679        C680   1.412       .  A
C679        C684   1.389       .  A
C679        H686   1.083       .  S
C680        C681   1.418       .  A
C681        C682   1.410       .  A
C681       Br688   1.919       .  S
C682        C683   1.404       .  A
C682        H687   1.083       .  S
C683        C684   1.400       .  A
C684       Br685   1.924       .  S
C689        C690   1.401       .  A
C689        C694   1.402       .  A
C689        H696   1.083       .  S
C690        C691   1.410       .  A
C691        C692   1.404       .  A
C691       Br698   1.918       .  S
C692        C693   1.404       .  A
C692        H697   1.083       .  S
C693        C694   1.414       .  A
C694       Br695   1.922       .  S
C699        C700   1.411       .  A
C699        C704   1.400       .  A
C699        H706   1.083       .  S
C700        C701   1.422       .  A
C701        C702   1.396       .  A
C701       Br708   1.926       .  S
C702        C703   1.398       .  A
C702        H707   1.084       .  S
C703        C704   1.403       .  A
C704       Br705   1.918       .  S
C709        C710   1.400       .  A
C709        C714   1.393       .  A
C709        H716   1.084       .  S
C710        C711   1.404       .  A
C711        C712   1.399       .  A
C711       Br718   1.918       .  S
C712        C713   1.411       .  A
C712        H717   1.082       .  S
C713        C714   1.418       .  A
C714       Br715   1.926       .  S
C719        C720   1.406       .  A
C719        C724   1.408       .  A
C719        H726   1.083       .  S
C720        C721   1.414       .  A
C721        C722   1.392       .  A
C721       Br728   1.927       .  S
C722        C723   1.406       .  A
C722        H727   1.083       .  S
C723        C724   1.417       .  A
C724       Br725   1.920       .  S
C729        C730   1.409       .  A
C729        C734   1.394       .  A
C729        H736   1.083       .  S
C730        C731   1.415       .  A
C731        C732   1.407       .  A
C731       Br738   1.918       .  S
C732        C733   1.404       .  A
C732        H737   1.083       .  S
C733        C734   1.403       .  A
C734       Br735   1.921       .  S
C739        C740   1.409       .  A
C739        C744   1.394       .  A
C739        H746   1.083       .  S
C740        C741   1.418       .  A
C741        C742   1.401       .  A
C741       Br748   1.921       .  S
C742        C743   1.401       .  A
C742        H747   1.084       .  S
C743        C744   1.404       .  A
C744       Br745   1.923       .  S
C749        C750   1.408       .  A
C749        C754   1.413       .  A
C749        H756   1.083       .  S
C750        C751   1.410       .  A
C751        C752   1.385       .  A
C751       Br758   1.926       .  S
C752        C753   1.404       .  A
C752        H757   1.084       .  S
C753        C754   1.415       .  A
C754       Br755   1.918       .  S
C759        C760   1.402       .  A
C759        C764   1.403       .  A
C759        H766   1.083       .  S
C760        C761   1.412       .  A
C761        C762   1.403       .  A
C761       Br768   1.920       .  S
C762        C763   1.403       .  A
C762        H767   1.083       .  S
C763        C764   1.414       .  A
C764       Br765   1.920       .  S
C769        C770   1.407       .  A
C769        C774   1.408       .  A
C769        H776   1.083       .  S
C770        C771   1.408       .  A
C771        C772   1.392       .  A
C771       Br778   1.922       .  S
C772        C773   1.399       .  A
C772        H777   1.084       .  S
C773        C774   1.408       .  A
C774       Br775   1.916   1_455  S
C779        C780   1.404       .  A
C779        C784   1.398       .  A
C779        H786   1.083       .  S
C780        C781   1.412       .  A
C781        C782   1.399       .  A
C781       Br788   1.921       .  S
C782        C783   1.404       .  A
C782        H787   1.083       .  S
C783        C784   1.412       .  A
C784       Br785   1.921       .  S
C789        C790   1.406       .  A
C789        C794   1.406       .  A
C789        H796   1.083       .  S
C790        C791   1.417       .  A
C791        C792   1.388       .  A
C791       Br798   1.928       .  S
C792        C793   1.403       .  A
C792        H797   1.083       .  S
C793        C794   1.417       .  A
C794       Br795   1.920       .  S
C799        C800   1.408       .  A
C799        C804   1.402       .  A
C799        H806   1.083       .  S
C800        C801   1.417       .  A
C801        C802   1.387       .  A
C801       Br808   1.928       .  S
C802        C803   1.394       .  A
C802        H807   1.084       .  S
C803        C804   1.404       .  A
C804       Br805   1.917       .  S
C809        C810   1.402       .  A
C809        C814   1.393       .  A
C809        H816   1.083       .  S
C810        C811   1.411       .  A
C811        C812   1.408       .  A
C811       Br818   1.917       .  S
C812        C813   1.404       .  A
C812        H817   1.083       .  S
C813        C814   1.406       .  A
C814       Br815   1.922       .  S
C819        C820   1.400       .  A
C819        C824   1.401       .  A
C819        H826   1.083       .  S
C820        C821   1.403       .  A
C821        C822   1.389       .  A
C821       Br828   1.922       .  S
C822        C823   1.403       .  A
C822        H827   1.084       .  S
C823        C824   1.412       .  A
C824       Br825   1.919       .  S
C829        C830   1.397       .  A
C829        C834   1.392       .  A
C829        H836   1.084       .  S
C830        C831   1.408       .  A
C831        C832   1.405       .  A
C831       Br838   1.917       .  S
C832        C833   1.407       .  A
C832        H837   1.083       .  S
C833        C834   1.414       .  A
C834       Br835   1.924       .  S
C839        C840   1.405       .  A
C839        C844   1.405       .  A
C839        H846   1.084       .  S
C840        C841   1.405       .  A
C841        C842   1.400       .  A
C841       Br848   1.920       .  S
C842        C843   1.409       .  A
C842        H847   1.084       .  S
C843        C844   1.413       .  A
C844       Br845   1.919       .  S
