geometry optimzed in LAMMPS
_audit_creation_date              2020-11-30 
_audit_creation_method            'lammps2cif' 
_symmetry_space_group_name_H-M    'P1' 
_symmetry_Int_Tables_number       1 
_symmetry_cell_setting            triclinic 
loop_ 
_symmetry_equiv_pos_as_xyz 
  x,y,z 
_cell_length_a                    50.60686467 
_cell_length_b                    50.93829710742008 
_cell_length_c                    50.830657732328774 
_cell_angle_alpha                 90.02267320402723 
_cell_angle_beta                  90.1125621658137 
_cell_angle_gamma                 89.98551677578558 
loop_ 
_atom_site_label 
_atom_site_type_symbol 
_atom_site_fract_x 
_atom_site_fract_y 
_atom_site_fract_z 
_atom_site_charge 
O1          O  0.29780432  0.75298891  0.47777227    -0.76900
C2          C  0.30739338  0.70533265  0.54864152     0.84100
O3          O  0.27283685  0.65777300  0.46876803    -0.78000
O4          O  0.22102128  0.69488881  0.54800328    -0.79500
O5          O  0.21643767  0.76504109  0.50299292    -0.79300
O6          O  0.26019992  0.76298576  0.45727070    -0.77900
Zn7        Zn  0.29106503  0.71687726  0.49204128     1.55700
O8          O  0.23706717  0.75749234  0.54103188    -0.79300
Cd9        Cd  0.23399886  0.73894025  0.47718782     1.59700
Cd10       Cd  0.24204988  0.67682685  0.48900515     1.59600
O11         O  0.20552083  0.72109408  0.45266721    -0.79300
O12         O  0.25428460  0.71270270  0.49783987    -1.89800
Cd13       Cd  0.25003481  0.71932701  0.53549148     1.59900
O14         O  0.21072155  0.67882290  0.46275153    -0.79300
O15         O  0.28387794  0.70903612  0.55686175    -0.77900
C16         C  0.29373285  0.66797709  0.45880847     0.84600
C17         C  0.28427183  0.76806426  0.46288686     0.84300
O18         O  0.31319732  0.70877402  0.52449484    -0.76900
C19         C  0.22190094  0.77154928  0.52664827     0.85100
O20         O  0.30143893  0.69086200  0.46523141    -0.77000
C21         C  0.19872835  0.69698901  0.45027217     0.85200
C22         C  0.21515855  0.67122760  0.54253646     0.85500
O23         O  0.22504327  0.65949996  0.52250207    -0.79400
O24         O  0.80736036  0.70741803  0.97363444    -0.76900
C25         C  0.77830088  0.76919225  0.03257871     0.84100
O26         O  0.77222696  0.65714204  0.02781242    -0.78000
O27         O  0.70237302  0.71905282  0.04547825    -0.79500
O28         O  0.72889320  0.75455953  0.95647880    -0.79300
O29         O  0.77816518  0.70958073  0.94105510    -0.77900
Zn30       Zn  0.78651112  0.71662758  0.00627236     1.55700
O31         O  0.70885317  0.76190832  0.99478770    -0.79300
Cd32       Cd  0.74404558  0.71734915  0.96246049     1.59700
Cd33       Cd  0.73984537  0.67533590  0.00980383     1.59600
O34         O  0.71672479  0.69054217  0.95004421    -0.79300
O35         O  0.74986115  0.71155520  0.00019348    -1.89800
Cd36       Cd  0.72897407  0.73756869  0.02026558     1.59900
O37         O  0.72219104  0.65662930  0.97732851    -0.79300
O38         O  0.75450783  0.76355359  0.03873306    -0.77900
C39         C  0.79238363  0.66776501  0.03878023     0.65400
C40         C  0.80148329  0.70486543  0.94936751     0.84300
O41         O  0.79233036  0.75388919  0.01840184    -0.76900
C42         C  0.71359258  0.76823328  0.97099998     0.85100
O43         O  0.79867659  0.69151151  0.03401834    -0.77000
C44         C  0.71196910  0.66689679  0.95665331     0.85200
C45         C  0.69806046  0.69474711  0.04998591     0.85500
O46         O  0.71089834  0.67655758  0.03846146    -0.79400
O47         O  0.19807568  0.53579919  0.19033819    -0.76900
C48         C  0.26127202  0.47623134  0.21778727     0.84100
O49         O  0.15028460  0.47985418  0.22696489    -0.78000
O50         O  0.21381647  0.46427172  0.29562109    -0.79500
O51         O  0.24816330  0.55394483  0.26653150    -0.79300
O52         O  0.19983183  0.56817231  0.21950036    -0.77900
Zn53       Zn  0.20914542  0.50367512  0.21131497     1.55700
O54         O  0.25773840  0.51556593  0.28541587    -0.79300
Cd55       Cd  0.21001471  0.54717481  0.25327103     1.59700
Cd56       Cd  0.16855710  0.49933177  0.25866246     1.59600
O57         O  0.18414336  0.55894016  0.28175127    -0.79300
O58         O  0.20468344  0.50938657  0.24793184    -1.89800
Cd59       Cd  0.23163044  0.48937866  0.26792975     1.59900
O60         O  0.14974994  0.53193384  0.27622144    -0.79300
O61         O  0.25565898  0.46960353  0.24136956    -0.77900
C62         C  0.16120462  0.46928858  0.20680781     0.84600
C63         C  0.19473960  0.55988460  0.19633807     0.84300
O64         O  0.24662643  0.49184735  0.20454767    -0.76900
C65         C  0.26328970  0.53956480  0.28062221     0.85100
O66         O  0.18468678  0.47521261  0.20015773    -0.77000
C67         C  0.16038233  0.55233093  0.28664362     0.85200
C68         C  0.18943605  0.45965664  0.30051632     0.85500
O69         O  0.17095896  0.47131755  0.28804705    -0.79400
O70         O  0.52547875  0.19746381  0.19774037    -0.76900
C71         C  0.46689818  0.22446140  0.26026113     0.84100
O72         O  0.47051110  0.23534079  0.14816922    -0.78000
O73         O  0.45331672  0.30250723  0.21335668    -0.79500
O74         O  0.54453641  0.27517878  0.24645723    -0.79300
O75         O  0.55849044  0.22618286  0.19865049    -0.77900
Zn76       Zn  0.49316188  0.21866731  0.20750420     1.55700
O77         O  0.50528297  0.29308639  0.25521329    -0.79300
Cd78       Cd  0.53769271  0.26059468  0.20857631     1.59700
Cd79       Cd  0.48870593  0.26651799  0.16782856     1.59600
O80         O  0.54904545  0.28907817  0.18229887    -0.79300
O81         O  0.49943073  0.25518351  0.20352680    -1.89800
Cd82       Cd  0.47899528  0.27473179  0.23037440     1.59900
O83         O  0.52034190  0.28484343  0.14908640    -0.79300
O84         O  0.46051676  0.24825602  0.25542481    -0.77900
C85         C  0.45931065  0.21560330  0.15897113     0.84600
C86         C  0.54982643  0.20295495  0.19445833     0.84300
O87         O  0.48133016  0.21123695  0.24453464    -0.76900
C88         C  0.52958045  0.28946978  0.26086596     0.85100
O89         O  0.46454873  0.20854366  0.18244634    -0.77000
C90         C  0.54122433  0.29486826  0.15915744     0.85200
C91         C  0.44867448  0.30783216  0.18917516     0.85500
O92         O  0.46022878  0.29552450  0.17063001    -0.79400
O93         O  0.31168413  0.20619908  0.47420771    -0.76900
C94         C  0.28224979  0.26985562  0.53003294     0.84100
O95         O  0.27315658  0.15780804  0.52787959    -0.78000
O96         O  0.20486243  0.22165231  0.54260317    -0.79500
O97         O  0.23408744  0.25381857  0.45221644    -0.79300
O98         O  0.28370273  0.20776923  0.44049465    -0.77900
Zn99       Zn  0.28969853  0.21658967  0.50550678     1.55700
O100        O  0.21356891  0.26199872  0.49006074    -0.79300
Cd101      Cd  0.24871945  0.21671195  0.46010803     1.59700
Cd102      Cd  0.24219568  0.17647609  0.50848133     1.59600
O103        O  0.22064030  0.19025326  0.44827654    -0.79300
O104        O  0.25329721  0.21211125  0.49816448    -1.89800
Cd105      Cd  0.23248044  0.23878061  0.51716805     1.59900
O106        O  0.22444077  0.15715422  0.47685748    -0.79300
O107        O  0.25804790  0.26500164  0.53522469    -0.77900
C108        C  0.29287153  0.16851077  0.53945935     0.84600
C109        C  0.30669135  0.20317345  0.44982552     0.84300
O110        O  0.29642548  0.25388750  0.51681551    -0.76900
C111        C  0.21834347  0.26764154  0.46610688     0.85100
O112        O  0.29973898  0.19200423  0.53430801    -0.77000
C113        C  0.21462520  0.16721523  0.45595365     0.85200
C114        C  0.20001184  0.19746541  0.54730317     0.85500
O115        O  0.21273517  0.17906643  0.53607714    -0.79400
O116        O  0.74241651  0.52448942  0.20340854    -0.76900
C117        C  0.69286645  0.45567169  0.19391514     0.84100
O118        O  0.64511625  0.53117124  0.22903478    -0.78000
O119        O  0.68272324  0.45239926  0.27873069    -0.79500
O120        O  0.75265066  0.49723821  0.28693341    -0.79300
O121        O  0.75502361  0.54159235  0.24175386    -0.77900
Zn122      Zn  0.70537673  0.51142381  0.21132035     1.55700
O123        O  0.74581663  0.45981891  0.26529799    -0.79300
Cd124      Cd  0.72896595  0.52360791  0.26758264     1.59700
Cd125      Cd  0.66572541  0.51321547  0.26037613     1.59600
O126        O  0.71215179  0.54919096  0.29493443    -0.79300
O127        O  0.70168512  0.50411849  0.24767439    -1.89800
Cd128      Cd  0.70811637  0.46626373  0.25103012     1.59900
O129        O  0.66902481  0.54165984  0.28947715    -0.79300
O130        O  0.69891997  0.44625995  0.21638990    -0.77900
C131        C  0.65504380  0.54223422  0.20862997     0.84600
C132        C  0.75901026  0.53737908  0.21730909     0.84300
O133        O  0.69497999  0.48013510  0.18926870    -0.76900
C134        C  0.75905745  0.47363559  0.28163374     0.85100
O135        O  0.67895981  0.53836637  0.20195205    -0.77000
C136        C  0.68803878  0.55347945  0.30100823     0.85200
C137        C  0.65980594  0.45879524  0.28672272     0.85500
O138        O  0.64876644  0.48025633  0.27932901    -0.79400
O139        O  0.01802092  0.30319651  0.25157650    -0.76900
C140        C  0.94918407  0.31113582  0.30256027     0.84100
O141        O  0.02872861  0.27984461  0.34798568    -0.78000
O142        O  0.95058187  0.22531037  0.31330371    -0.79500
O143        O  0.99486672  0.22160084  0.24237854    -0.79300
O144        O  0.03973049  0.26647678  0.24162030    -0.77900
Zn145      Zn  0.00577863  0.29614214  0.28866038     1.55700
O146        O  0.95651638  0.24181277  0.25048437    -0.79300
Cd147      Cd  0.02142397  0.24005352  0.26716201     1.59700
Cd148      Cd  0.00968091  0.24854832  0.32945776     1.59600
O149        O  0.04728343  0.21284273  0.28552972    -0.79300
O150        O  0.00044656  0.25970435  0.29348505    -1.89800
Cd151      Cd  0.96255746  0.25436946  0.28836518     1.59900
O152        O  0.03689825  0.21835198  0.32780984    -0.79300
O153        O  0.94116179  0.28774315  0.29854084    -0.77900
C154        C  0.03956402  0.29966543  0.33689861     0.84600
C155        C  0.03302857  0.29010140  0.23624585     0.84300
O156        O  0.97330574  0.31723496  0.29872359    -0.76900
C157        C  0.97091636  0.22685405  0.23635190     0.85100
O158        O  0.03396892  0.30657028  0.31347870    -0.77000
C159        C  0.04987111  0.20660089  0.30984731     0.85200
C160        C  0.95692885  0.22064722  0.33708948     0.85500
O161        O  0.97694540  0.23163053  0.34791335    -0.79400
O162        O  0.80249882  0.03579607  0.30913322    -0.76900
C163        C  0.73888138  0.97776388  0.28291167     0.84100
O164        O  0.85074234  0.97948525  0.27101875    -0.78000
O165        O  0.78654519  0.96283731  0.20544383    -0.79500
O166        O  0.75294867  0.05341895  0.23256548    -0.79300
O167        O  0.80086017  0.06867335  0.28062222    -0.77900
Zn168      Zn  0.79192308  0.00396680  0.28827797     1.55700
O169        O  0.74491784  0.01475534  0.21352768    -0.79300
Cd170      Cd  0.79095931  0.04746100  0.24654738     1.59700
Cd171      Cd  0.83216779  0.99951432  0.23993287     1.59600
O172        O  0.81659058  0.05909714  0.21769862    -0.79300
O173        O  0.79637270  0.00961203  0.25175597    -1.89800
Cd174      Cd  0.76947787  0.98886113  0.23264009     1.59900
O175        O  0.85089573  0.03191650  0.22250911    -0.79300
O176        O  0.74394320  0.97115386  0.25919915    -0.77900
C177        C  0.84013276  0.96966363  0.29169796     0.84600
C178        C  0.80579766  0.05995571  0.30368657     0.84300
O179        O  0.75457559  0.99238425  0.29604933    -0.76900
C180        C  0.73883476  0.03868290  0.21779093     0.85100
O181        O  0.81698888  0.97619247  0.29892579    -0.77000
C182        C  0.84010827  0.05218801  0.21208234     0.85200
C183        C  0.81058888  0.96025476  0.19813997     0.85500
O184        O  0.82926494  0.97292808  0.20922196    -0.79400
O185        O  0.70304348  0.76289916  0.48019519    -0.76900
C186        C  0.69285688  0.81031619  0.54974646     0.84100
O187        O  0.72466709  0.85961592  0.47259465    -0.78000
O188        O  0.77771562  0.82357003  0.55130509    -0.79500
O189        O  0.78708492  0.75448484  0.50509997    -0.79300
O190        O  0.74133828  0.75293583  0.46104061    -0.77900
Zn191      Zn  0.70910457  0.79985428  0.49310830     1.55700
O192        O  0.76595738  0.75998111  0.54309013    -0.79300
Cd193      Cd  0.76649611  0.77890458  0.47983286     1.59700
Cd194      Cd  0.75600850  0.84092085  0.49226853     1.59600
O195        O  0.79235985  0.79823109  0.45451083    -0.79300
O196        O  0.74550693  0.80440433  0.50030845    -1.89800
Cd197      Cd  0.75042184  0.79725446  0.53787345     1.59900
O198        O  0.78688697  0.84025833  0.46586238    -0.79300
O199        O  0.71575825  0.80458508  0.55859591    -0.77900
C200        C  0.70474805  0.84915694  0.46099604     0.84600
C201        C  0.71731422  0.74750704  0.46636041     0.84300
O202        O  0.68760790  0.80890114  0.52525745    -0.76900
C203        C  0.78211663  0.74724944  0.52860753     0.85100
O204        O  0.69817075  0.82545551  0.46551253    -0.77000
C205        C  0.79851479  0.82249330  0.45256796     0.85200
C206        C  0.78297556  0.84734715  0.54563277     0.85500
O207        O  0.77263283  0.85867599  0.52561032    -0.79400
C208        C  0.91931300  0.84671329  0.35145366     0.88100
C209        C  0.93642234  0.86241443  0.37130382    -0.52200
C210        C  0.92268465  0.88105081  0.38519405     0.11000
C211        C  0.89298814  0.88166139  0.37855493     0.21900
C212        C  0.89748782  0.83505174  0.36890242    -0.52900
C213        C  0.88336669  0.85323092  0.38278565     0.11100
C214        C  0.90560847  0.86770063  0.33478224    -0.52400
C215        C  0.89217686  0.88607621  0.34869556     0.11700
H216        H  0.95729081  0.85942150  0.37452624     0.16200
H217        H  0.88159118  0.89647589  0.38981049     0.01900
H218        H  0.89394337  0.81411230  0.37066245     0.16500
H219        H  0.90674838  0.86812101  0.31340899     0.16300
C220        C  0.84172851  0.15981126  0.42191810     0.88100
C221        C  0.82878647  0.14309015  0.40034674    -0.52200
C222        C  0.84593622  0.12771178  0.38661114     0.11000
C223        C  0.87485196  0.13018646  0.39578659     0.21900
C224        C  0.85707058  0.13994579  0.43927723    -0.52900
C225        C  0.87452528  0.12447716  0.42561483     0.11100
C226        C  0.86393938  0.17490891  0.40809666    -0.52400
C227        C  0.88107344  0.15966280  0.39436981     0.11700
H228        H  0.80778270  0.14357002  0.39615066     0.16200
H229        H  0.88867549  0.11774892  0.38430436     0.01900
H230        H  0.85670092  0.13953276  0.46049928     0.16500
H231        H  0.86598106  0.19617435  0.40907274     0.16300
C232        C  0.85029271  0.92812989  0.66031991     0.88100
C233        C  0.86827509  0.90652761  0.67133769    -0.52200
C234        C  0.88349290  0.89387034  0.65304079     0.11000
C235        C  0.87860213  0.90403588  0.62474811     0.21900
C236        C  0.86897301  0.94646835  0.64469669    -0.52900
C237        C  0.88373215  0.93384446  0.62599595     0.11100
C238        C  0.83405843  0.91475847  0.63865644    -0.52400
C239        C  0.84859018  0.90201438  0.62031386     0.11700
H240        H  0.86801323  0.90122849  0.69200750     0.16200
H241        H  0.89049851  0.89412947  0.60946269     0.01900
H242        H  0.86921699  0.96762764  0.64604606     0.16500
H243        H  0.81259509  0.91523486  0.63787751     0.16300
C244        C  0.15181055  0.08541415  0.33940404     0.88100
C245        C  0.13108237  0.06874131  0.35423650    -0.52200
C246        C  0.11625406  0.08277781  0.37168928     0.11000
C247        C  0.12312166  0.11213664  0.37290154     0.21900
C248        C  0.13538177  0.10763099  0.32685621    -0.52900
C249        C  0.12043298  0.12204174  0.34415318     0.11100
C250        C  0.16758461  0.09856002  0.36154952    -0.52400
C251        C  0.15284029  0.11230725  0.37905423     0.11700
H252        H  0.12827763  0.04790478  0.35270105     0.16200
H253        H  0.11160544  0.12314411  0.38778799     0.01900
H254        H  0.13523893  0.11098107  0.30570600     0.16500
H255        H  0.18888772  0.09694438  0.36332794     0.16300
C256        C  0.08188941  0.16873225  0.65057199     0.88100
C257        C  0.10288519  0.18127380  0.63257933    -0.52200
C258        C  0.11592513  0.16385545  0.61683672     0.11000
C259        C  0.10689349  0.13511555  0.62058448     0.21900
C260        C  0.06387741  0.15360027  0.63134237    -0.52900
C261        C  0.07680625  0.13579458  0.61583167     0.11100
C262        C  0.09721983  0.14747685  0.66560076    -0.52400
C263        C  0.10987180  0.12980277  0.65017039     0.11700
H264        H  0.10808598  0.20209211  0.63195759     0.16200
H265        H  0.11755223  0.12060330  0.60826326     0.01900
H266        H  0.04268248  0.15669732  0.63029141     0.16500
H267        H  0.09752835  0.14612061  0.68693685     0.16300
C268        C  0.16275509  0.85663145  0.57562427     0.88100
C269        C  0.14803431  0.87817227  0.55986738    -0.52200
C270        C  0.12934592  0.89126964  0.57420017     0.11000
C271        C  0.12772635  0.88258387  0.60306816     0.21900
C272        C  0.17444053  0.87196840  0.59902782    -0.52900
C273        C  0.15620209  0.88534380  0.61352452     0.11100
C274        C  0.14087147  0.83954989  0.58742588    -0.52400
C275        C  0.12241859  0.85286569  0.60154231     0.11700
H276        H  0.15166771  0.88296996  0.53944125     0.16200
H277        H  0.11286829  0.89373994  0.61459630     0.01900
H278        H  0.19545543  0.87337012  0.60307326     0.16500
H279        H  0.14026043  0.81837090  0.58491849     0.16300
O280        O  0.02391027  0.02692855  0.44172456    -0.76900
C281        C  0.97448003  0.95663488  0.45377312     0.84100
O282        O  0.95270297  0.05297401  0.50020795    -0.78000
O283        O  0.96706199  0.96723539  0.53700971    -0.79500
O284        O  0.06036766  0.98546838  0.52039165    -0.79300
O285        O  0.05687424  0.02914948  0.47057753    -0.77900
Zn286      Zn  0.99239264  0.01364666  0.46255339     1.55700
O287        O  0.03008255  0.95391829  0.52301104    -0.79300
Cd288      Cd  0.03946125  0.01689647  0.50501383     1.59700
Cd289      Cd  0.97899757  0.03099688  0.52309040     1.59600
O290        O  0.04348761  0.04762235  0.53098017    -0.79300
O291        O  0.00134821  0.00828663  0.49940641    -1.89800
Cd292      Cd  0.99573715  0.97062309  0.50846530     1.59900
O293        O  0.00272226  0.05691208  0.54466604    -0.79300
O294        O  0.98193380  0.94932247  0.47657895    -0.77900
C295        C  0.95048648  0.05502073  0.47525751     0.84600
C296        C  0.04779892  0.03258029  0.44745483     0.84300
O297        O  0.97723736  0.98035880  0.44615084    -0.76900
C298        C  0.05359457  0.96220472  0.52666323     0.85100
O299        O  0.96462887  0.04154177  0.45957546    -0.77000
C300        C  0.02763337  0.06102468  0.54502033     0.85200
C301        C  0.95414561  0.98330894  0.55125220     0.85500
O302        O  0.95701024  0.00812855  0.54923738    -0.79400
O303        O  0.68734387  0.30431561  0.47589973    -0.76900
C304        C  0.71821445  0.24374239  0.53436200     0.84100
O305        O  0.72641588  0.35515662  0.53022880    -0.78000
O306        O  0.79638742  0.29082513  0.54402667    -0.79500
O307        O  0.76509676  0.25943662  0.45423159    -0.79300
O308        O  0.71612777  0.30744332  0.44308110    -0.77900
Zn309      Zn  0.71011037  0.29595039  0.50759118     1.55700
O310        O  0.78505423  0.24937892  0.49214668    -0.79300
Cd311      Cd  0.75116766  0.29698736  0.46254969     1.59700
Cd312      Cd  0.75795671  0.33639462  0.51181968     1.59600
O313        O  0.77987001  0.32304415  0.45136129    -0.79300
O314        O  0.74671859  0.30084122  0.50073521    -1.89800
Cd315      Cd  0.76778474  0.27380787  0.51943098     1.59900
O316        O  0.77656468  0.35575816  0.48050238    -0.79300
O317        O  0.74256250  0.24843604  0.53903092    -0.77900
C318        C  0.70612935  0.34456520  0.54083193     0.84600
C319        C  0.69259874  0.30949928  0.45195702     0.84300
O320        O  0.70409505  0.25947085  0.52080046    -0.76900
C321        C  0.77997069  0.24449614  0.46804852     0.85100
O322        O  0.69920195  0.32118549  0.53532113    -0.77000
C323        C  0.78621383  0.34587730  0.45943218     0.85200
C324        C  0.80037654  0.31483240  0.55023621     0.85500
O325        O  0.78678523  0.33349558  0.54048684    -0.79400
O326        O  0.02655497  0.69623458  0.69829912    -0.76900
C327        C  0.96752103  0.72650794  0.75922136     0.84100
O328        O  0.97089983  0.73285330  0.64698866    -0.78000
O329        O  0.95595528  0.80205732  0.70818772    -0.79500
O330        O  0.04476191  0.77387457  0.74359078    -0.79300
O331        O  0.05903144  0.72564622  0.69670344    -0.77900
Zn332      Zn  0.99406147  0.71772551  0.70681477     1.55700
O333        O  0.00621055  0.79337357  0.75204688    -0.79300
Cd334      Cd  0.03830339  0.75967360  0.70597259     1.59700
Cd335      Cd  0.99117379  0.76405492  0.66445675     1.59600
O336        O  0.05009492  0.78748218  0.67951241    -0.79300
O337        O  0.00048228  0.75395388  0.70089004    -1.89800
Cd338      Cd  0.98033879  0.77472413  0.72690666     1.59900
O339        O  0.02412187  0.77969943  0.64482620    -0.79300
O340        O  0.96100997  0.74984316  0.75270805    -0.77900
C341        C  0.96002912  0.71323255  0.65836276     0.84600
C342        C  0.05062675  0.70218647  0.69398289     0.84300
O343        O  0.98200619  0.71242536  0.74427819    -0.76900
C344        C  0.03023047  0.78855855  0.75793725     0.85100
O345        O  0.96563478  0.70648676  0.68185387    -0.77000
C346        C  0.04401154  0.79110858  0.65546003     0.85200
C347        C  0.95266020  0.80747814  0.68382948     0.85500
O348        O  0.96453084  0.79473999  0.66578074    -0.79400
C349        C  0.15150725  0.58602512  0.65409674     0.88100
C350        C  0.13350268  0.60600884  0.66813912    -0.52200
C351        C  0.11728244  0.61983888  0.65173181     0.11000
C352        C  0.12067444  0.61266679  0.62239485     0.21900
C353        C  0.13263090  0.56886802  0.63771832    -0.52900
C354        C  0.11634927  0.58261170  0.62104558     0.11100
C355        C  0.16617429  0.60287736  0.63386765    -0.52400
C356        C  0.15035188  0.61618661  0.61701918     0.11700
H357        H  0.13433950  0.61082113  0.68877446     0.16200
H358        H  0.10771856  0.62431398  0.60920564     0.01900
H359        H  0.13307179  0.54758918  0.63855196     0.16500
H360        H  0.18759561  0.60402312  0.63266037     0.16300
C361        C  0.16058706  0.35482292  0.41850943     0.88100
C362        C  0.17362651  0.37212197  0.39730108    -0.52200
C363        C  0.15640560  0.38799876  0.38379109     0.11000
C364        C  0.12741230  0.38495403  0.39313329     0.21900
C365        C  0.14624624  0.37503843  0.43605893    -0.52900
C366        C  0.12824905  0.39022777  0.42301466     0.11100
C367        C  0.13867006  0.33997118  0.40421704    -0.52400
C368        C  0.12148197  0.35549401  0.39104420     0.11700
H369        H  0.19465712  0.37178407  0.39332157     0.16200
H370        H  0.11279206  0.39725165  0.38253460     0.01900
H371        H  0.15025914  0.37792275  0.45679245     0.16500
H372        H  0.13678720  0.31870093  0.40456950     0.16300
C373        C  0.83946964  0.65853247  0.57433593     0.88100
C374        C  0.85567860  0.63931145  0.55725332    -0.52200
C375        C  0.87282887  0.62391032  0.57127188     0.11000
C376        C  0.87194439  0.62873393  0.60121015     0.21900
C377        C  0.82567754  0.64015720  0.59417194    -0.52900
C378        C  0.84265746  0.62503815  0.60857311     0.11100
C379        C  0.86001360  0.67361349  0.59041284    -0.52400
C380        C  0.87698981  0.65833174  0.60433437     0.11700
H381        H  0.85336821  0.63712282  0.53615444     0.16200
H382        H  0.88576984  0.61626910  0.61273747     0.01900
H383        H  0.80449746  0.63892286  0.59667283     0.16500
H384        H  0.86132501  0.69492012  0.59038456     0.16300
C385        C  0.84550683  0.42518574  0.34019335     0.88100
C386        C  0.86647920  0.44251632  0.35374527    -0.52200
C387        C  0.88199417  0.42932394  0.37131408     0.11000
C388        C  0.87592379  0.39978128  0.37322259     0.21900
C389        C  0.86215223  0.40339790  0.32736641    -0.52900
C390        C  0.87772003  0.38987284  0.34454317     0.11100
C391        C  0.83068042  0.41190490  0.36272593    -0.52400
C392        C  0.84630819  0.39901794  0.38029408     0.11700
H393        H  0.86909996  0.46331881  0.35006116     0.16200
H394        H  0.88886121  0.38915466  0.38732059     0.01900
H395        H  0.86295445  0.39977190  0.30635217     0.16500
H396        H  0.80932621  0.41304648  0.36482639     0.16300
C397        C  0.92145380  0.34288069  0.64878493     0.88100
C398        C  0.89826405  0.33152053  0.63313404    -0.52200
C399        C  0.88516878  0.34932470  0.61806050     0.11000
C400        C  0.89661527  0.37741286  0.61972739     0.21900
C401        C  0.93910550  0.35625939  0.62779466    -0.52900
C402        C  0.92608436  0.37444910  0.61265814     0.11100
C403        C  0.91001556  0.36620371  0.66412674    -0.52400
C404        C  0.89724333  0.38441637  0.64924908     0.11700
H405        H  0.89274453  0.31091252  0.63377738     0.16200
H406        H  0.88605919  0.39200999  0.60740420     0.01900
H407        H  0.96005223  0.35310608  0.62533246     0.16500
H408        H  0.91193922  0.36805575  0.68534243     0.16300
C409        C  0.07596087  0.66887428  0.34918197     0.88100
C410        C  0.05938902  0.65234350  0.36867442    -0.52200
C411        C  0.07387270  0.63482205  0.38317709     0.11000
C412        C  0.10370155  0.63542179  0.37696309     0.21900
C413        C  0.09726422  0.68165780  0.36656211    -0.52900
C414        C  0.11219916  0.66443529  0.38102995     0.11100
C415        C  0.09053863  0.64805128  0.33291634    -0.52400
C416        C  0.10483879  0.63053556  0.34714604     0.11700
H417        H  0.03807451  0.65254830  0.37026038     0.16200
H418        H  0.11545274  0.62089404  0.38823123     0.01900
H419        H  0.09972760  0.70278900  0.36753952     0.16500
H420        H  0.08924150  0.64699319  0.31159209     0.16300
O421        O  0.01666682  0.56324362  0.47339947    -0.76900
C422        C  0.94577471  0.55045290  0.52322073     0.84100
O423        O  0.04313498  0.50648900  0.54600800    -0.78000
O424        O  0.95722412  0.46399178  0.52799158    -0.79500
O425        O  0.97658050  0.48477141  0.43853000    -0.79300
O426        O  0.02185915  0.53341181  0.44198284    -0.77900
Zn427      Zn  0.00308974  0.54254830  0.50488611     1.55700
O428        O  0.94349776  0.48436370  0.46745916    -0.79300
Cd429      Cd  0.00811387  0.49954079  0.45968095     1.59700
Cd430      Cd  0.02142818  0.48235790  0.52044538     1.59600
O431        O  0.03836108  0.47301878  0.45657704    -0.79300
O432        O  0.99851825  0.50532489  0.49731478    -1.89800
Cd433      Cd  0.96057625  0.49566369  0.50272085     1.59900
O434        O  0.04808277  0.46035724  0.49742461    -0.79300
O435        O  0.93926546  0.52664055  0.51892630    -0.77900
C436        C  0.04466797  0.53151122  0.54755247     0.84600
C437        C  0.02402474  0.55690744  0.45027104     0.84300
O438        O  0.96895760  0.55886629  0.51810690    -0.76900
C439        C  0.95256565  0.48017754  0.44443897     0.85100
O440        O  0.03068245  0.54649641  0.53306314    -0.77000
C441        C  0.05205032  0.45945218  0.47258202     0.85200
C442        C  0.97335159  0.45097654  0.54220327     0.85500
O443        O  0.99813078  0.45598091  0.54220605    -0.79400
C444        C  0.65619438  0.35666791  0.07508892     0.88100
C445        C  0.64152139  0.37724899  0.05804749    -0.52200
C446        C  0.62412192  0.39252856  0.07186469     0.11000
C447        C  0.62313860  0.38608896  0.10151383     0.21900
C448        C  0.66912946  0.37297685  0.09697242    -0.52900
C449        C  0.65205678  0.38815218  0.11109227     0.11100
C450        C  0.63378121  0.34154567  0.08847118    -0.52400
C451        C  0.61650722  0.35663953  0.10218262     0.11700
H452        H  0.64292062  0.37924507  0.03699213     0.16200
H453        H  0.60909579  0.39836505  0.11289857     0.01900
H454        H  0.69023867  0.37257536  0.10082689     0.16500
H455        H  0.63180463  0.32032189  0.08724362     0.16300
C456        C  0.57844838  0.66751403  0.15068669     0.88100
C457        C  0.60121690  0.67918681  0.13464043    -0.52200
C458        C  0.61461097  0.66133249  0.11977075     0.11000
C459        C  0.60364361  0.63304916  0.12188129     0.21900
C460        C  0.56110042  0.65384250  0.12963229    -0.52900
C461        C  0.57430290  0.63579726  0.11488366     0.11100
C462        C  0.59087229  0.64490161  0.16624809    -0.52400
C463        C  0.60342211  0.62629095  0.15157062     0.11700
H464        H  0.60615903  0.69994599  0.13474088     0.16200
H465        H  0.61375034  0.61865888  0.10904594     0.01900
H466        H  0.54025165  0.65761287  0.12563476     0.16500
H467        H  0.58972094  0.64401565  0.18756250     0.16300
C468        C  0.42015288  0.34787248  0.84744415     0.88100
C469        C  0.43713932  0.36326722  0.86746180    -0.52200
C470        C  0.42340002  0.38142731  0.88198803     0.11000
C471        C  0.39341523  0.38138351  0.87595465     0.21900
C472        C  0.39880410  0.33513346  0.86483868    -0.52900
C473        C  0.38463732  0.35256775  0.87940878     0.11100
C474        C  0.40570752  0.36902067  0.83154833    -0.52400
C475        C  0.39197227  0.38651923  0.84627221     0.11700
H476        H  0.45820718  0.36009334  0.86980091     0.16200
H477        H  0.38156262  0.39570438  0.88736314     0.01900
H478        H  0.39578675  0.31429313  0.86720648     0.16500
H479        H  0.40659111  0.37029334  0.81021541     0.16300
C480        C  0.33709907  0.65932997  0.91978262     0.88100
C481        C  0.32413052  0.64165959  0.89890065    -0.52200
C482        C  0.34134758  0.62599676  0.88524566     0.11000
C483        C  0.37043682  0.62968727  0.89407912     0.21900
C484        C  0.35307142  0.64038149  0.93740570    -0.52900
C485        C  0.37051699  0.62504862  0.92395543     0.11100
C486        C  0.35863704  0.67453056  0.90498137    -0.52400
C487        C  0.37582498  0.65921296  0.89150997     0.11700
H488        H  0.30313415  0.64255086  0.89463811     0.16200
H489        H  0.38514670  0.61736152  0.88368663     0.01900
H490        H  0.35245732  0.63948238  0.95856874     0.16500
H491        H  0.36055986  0.69577824  0.90560079     0.16300
C492        C  0.65480416  0.58083429  0.83927406     0.88100
C493        C  0.63309702  0.56464508  0.85327728    -0.52200
C494        C  0.61766140  0.57901204  0.87021287     0.11000
C495        C  0.62477318  0.60846090  0.87076629     0.21900
C496        C  0.63897071  0.60265084  0.82539596    -0.52900
C497        C  0.62350773  0.61719590  0.84175529     0.11100
C498        C  0.66966345  0.59449510  0.86173075    -0.52400
C499        C  0.65421221  0.60879510  0.87817127     0.11700
H500        H  0.62917230  0.54409380  0.84985710     0.16200
H501        H  0.61251688  0.62050467  0.88422752     0.01900
H502        H  0.63954640  0.60601351  0.80430748     0.16500
H503        H  0.69094370  0.59301868  0.86436128     0.16300
C504        C  0.34820377  0.42971741  0.15877780     0.88100
C505        C  0.36588160  0.40903050  0.17225120    -0.52200
C506        C  0.38087637  0.39421358  0.15539446     0.11000
C507        C  0.37707370  0.40207548  0.12613293     0.21900
C508        C  0.36800099  0.44612398  0.14248912    -0.52900
C509        C  0.38271142  0.43170867  0.12519159     0.11100
C510        C  0.33237431  0.41433454  0.13823898    -0.52400
C511        C  0.34717193  0.39999386  0.12122596     0.11700
H512        H  0.36569718  0.40584126  0.19334506     0.16200
H513        H  0.38911443  0.39072121  0.11189416     0.01900
H514        H  0.37120054  0.46697572  0.14426503     0.16500
H515        H  0.31091167  0.41478341  0.13719751     0.16300
O516        O  0.46961661  0.56498637  0.97812729    -0.76900
C517        C  0.52412112  0.56166290  0.04450172     0.84100
O518        O  0.54211708  0.51043476  0.94887867    -0.78000
O519        O  0.53678199  0.47739566  0.03868271    -0.79500
O520        O  0.44298880  0.48693339  0.02690001    -0.79300
O521        O  0.43957019  0.53297564  0.97882390    -0.77900
Zn522      Zn  0.50391677  0.54762799  0.98935582     1.55700
O523        O  0.47561250  0.48757368  0.05632062    -0.79300
Cd524      Cd  0.46037579  0.50127314  0.99289896     1.59700
Cd525      Cd  0.52070145  0.48742469  0.97486822     1.59600
O526        O  0.45655259  0.47208128  0.96536138    -0.79300
O527        O  0.49825539  0.51061784  0.99793121    -1.89800
Cd528      Cd  0.50682585  0.50431468  0.03573274     1.59900
O529        O  0.49728821  0.46158207  0.95268336    -0.79300
O530        O  0.51948427  0.53874590  0.05352952    -0.77900
C531        C  0.54313118  0.53517268  0.94507646     0.84600
C532        C  0.44622168  0.55659824  0.97404757     0.84300
O533        O  0.51938455  0.56743048  0.02052228    -0.76900
C534        C  0.45193184  0.48197994  0.04982692     0.85100
O535        O  0.52947075  0.55110174  0.95884889    -0.77000
C536        C  0.47227297  0.45832634  0.95153874     0.85200
C537        C  0.55040571  0.46394338  0.02255290     0.85500
O538        O  0.54732855  0.46566835  0.99766631    -0.79400
O539        O  0.30353584  0.48454911  0.68795430    -0.76900
C540        C  0.23997442  0.54158566  0.71231006     0.84100
O541        O  0.35195569  0.53776713  0.72851553    -0.78000
O542        O  0.28437481  0.55454046  0.79232851    -0.79500
O543        O  0.24991124  0.46479193  0.76363641    -0.79300
O544        O  0.29671369  0.45103543  0.71501879    -0.77900
Zn545      Zn  0.29340921  0.51619822  0.70896093     1.55700
O546        O  0.24132520  0.50325265  0.78265848    -0.79300
Cd547      Cd  0.28802220  0.47117200  0.74968830     1.59700
Cd548      Cd  0.33083579  0.51803787  0.75815787     1.59600
O549        O  0.31390168  0.45757828  0.77759157    -0.79300
O550        O  0.29494049  0.50899055  0.74551442    -1.89800
Cd551      Cd  0.26723159  0.52906735  0.76443156     1.59900
O552        O  0.34811066  0.48522823  0.77626048    -0.79300
O553        O  0.24299684  0.54710529  0.73667861    -0.77900
C554        C  0.34234938  0.54899276  0.70809193     0.84600
C555        C  0.30387220  0.46003594  0.69269855     0.84300
O556        O  0.25713734  0.52826181  0.69977915    -0.76900
C557        C  0.23543617  0.47926246  0.77826470     0.85100
O558        O  0.31920389  0.54407269  0.69970121    -0.77000
C559        C  0.33713468  0.46418453  0.78469170     0.85200
C560        C  0.30859338  0.55784948  0.79893874     0.85500
O561        O  0.32725440  0.54533523  0.78775291    -0.79400
C562        C  0.66352439  0.65704418  0.42095894     0.88100
C563        C  0.64788564  0.63779280  0.43846283    -0.52200
C564        C  0.62979844  0.62271931  0.42521435     0.11000
C565        C  0.62981114  0.62782046  0.39518494     0.21900
C566        C  0.67638731  0.63877901  0.40035095    -0.52900
C567        C  0.65878029  0.62370606  0.38648965     0.11100
C568        C  0.64251065  0.67245045  0.40579243    -0.52400
C569        C  0.62490285  0.65747592  0.39248397     0.11700
H570        H  0.65041699  0.63673648  0.45959978     0.16200
H571        H  0.61565969  0.61551780  0.38403989     0.01900
H572        H  0.69746923  0.63747556  0.39697952     0.16500
H573        H  0.64159780  0.69377415  0.40560808     0.16300
C574        C  0.65385650  0.42961048  0.66160407     0.88100
C575        C  0.63481623  0.44706374  0.64537920    -0.52200
C576        C  0.61919601  0.43344696  0.62797414     0.11000
C577        C  0.62362696  0.40345360  0.62916194     0.21900
C578        C  0.63493901  0.41019073  0.67519644    -0.52900
C579        C  0.61941134  0.39590075  0.65834486     0.11100
C580        C  0.66883576  0.41348824  0.64113640    -0.52400
C581        C  0.65322873  0.40014044  0.62411859     0.11700
H582        H  0.63375850  0.46814854  0.64721862     0.16200
H583        H  0.61157475  0.39194383  0.61510773     0.01900
H584        H  0.63319017  0.40878502  0.69640227     0.16500
H585        H  0.69027029  0.41332515  0.63966418     0.16300
C586        C  0.42488771  0.66984142  0.65117801     0.88100
C587        C  0.44163840  0.65369456  0.63173572    -0.52200
C588        C  0.42743439  0.63606975  0.61717821     0.11000
C589        C  0.39738999  0.63695118  0.62252022     0.21900
C590        C  0.40436007  0.68314342  0.63318493    -0.52900
C591        C  0.38971438  0.66608555  0.61836289     0.11100
C592        C  0.40944275  0.64945128  0.66695669    -0.52400
C593        C  0.39506798  0.63228776  0.65235552     0.11700
H594        H  0.46251326  0.65640456  0.62838423     0.16200
H595        H  0.38562605  0.62293458  0.61055232     0.01900
H596        H  0.40163964  0.70426910  0.63212968     0.16500
H597        H  0.41045329  0.64828586  0.68828980     0.16300
C598        C  0.35189573  0.58608872  0.33737293     0.88100
C599        C  0.36913103  0.60734609  0.32443875    -0.52200
C600        C  0.38382671  0.62206526  0.34167460     0.11000
C601        C  0.38000079  0.61366418  0.37070818     0.21900
C602        C  0.37186463  0.56965270  0.35365818    -0.52900
C603        C  0.38639144  0.58414957  0.37118222     0.11100
C604        C  0.33573575  0.60046502  0.35839405    -0.52400
C605        C  0.35015342  0.61467474  0.37576732     0.11700
H606        H  0.36996159  0.60989767  0.30327222     0.16200
H607        H  0.39141668  0.62533053  0.38523399     0.01900
H608        H  0.37408096  0.54861241  0.35304964     0.16500
H609        H  0.31434127  0.59907778  0.35972917     0.16300
C610        C  0.57455398  0.34612182  0.35057980     0.88100
C611        C  0.59392237  0.33245649  0.36966878    -0.52200
C612        C  0.60837554  0.34931263  0.38495961     0.11000
C613        C  0.60149060  0.37852384  0.38037174     0.21900
C614        C  0.55728798  0.36293651  0.36917877    -0.52900
C615        C  0.57140011  0.38008821  0.38444696     0.11100
C616        C  0.59128224  0.36598545  0.33544688    -0.52400
C617        C  0.60505440  0.38297011  0.35073893     0.11700
H618        H  0.59622940  0.31132282  0.37097247     0.16200
H619        H  0.61295820  0.39245676  0.39273636     0.01900
H620        H  0.53604077  0.36116318  0.37107578     0.16500
H621        H  0.59184037  0.36686899  0.31408191     0.16300
C622        C  0.33862696  0.35808541  0.57608420     0.88100
C623        C  0.32555812  0.37529520  0.59723357    -0.52200
C624        C  0.34284742  0.38948685  0.61209705     0.11000
C625        C  0.37197456  0.38603826  0.60380087     0.21900
C626        C  0.35448114  0.37824669  0.55971783    -0.52900
C627        C  0.37227735  0.39256676  0.57420838     0.11100
C628        C  0.35961613  0.34197063  0.59060505    -0.52400
C629        C  0.37724406  0.35634413  0.60474143     0.11700
H630        H  0.30436785  0.37761626  0.59939320     0.16200
H631        H  0.38612870  0.39778670  0.61566494     0.01900
H632        H  0.35227248  0.38084751  0.53865930     0.16500
H633        H  0.36073128  0.32069598  0.58933700     0.16300
O634        O  0.47278841  0.45478665  0.52362101    -0.76900
C635        C  0.52531326  0.45709723  0.45415497     0.84100
O636        O  0.54619772  0.50740552  0.55057133    -0.78000
O637        O  0.53938649  0.54131409  0.46065455    -0.79500
O638        O  0.44573779  0.53132487  0.47197052    -0.79300
O639        O  0.44188182  0.48572522  0.52033349    -0.77900
Zn640      Zn  0.50670044  0.47119970  0.50977268     1.55700
O641        O  0.47808588  0.52942128  0.44252612    -0.79300
Cd642      Cd  0.46314123  0.51738523  0.50615372     1.59700
Cd643      Cd  0.52430220  0.53080698  0.52458835     1.59600
O644        O  0.45965079  0.54731270  0.53292379    -0.79300
O645        O  0.50121604  0.50807348  0.50140072    -1.89800
Cd646      Cd  0.50960798  0.51426672  0.46357461     1.59900
O647        O  0.50060249  0.55656002  0.54646299    -0.79300
O648        O  0.52201584  0.48026179  0.44532987    -0.77900
C649        C  0.54821928  0.48246805  0.55236256     0.84600
C650        C  0.44900192  0.46257653  0.52670638     0.84300
O651        O  0.51999840  0.45116965  0.47794262    -0.76900
C652        C  0.45445891  0.53524366  0.44880593     0.85100
O653        O  0.53464574  0.46716915  0.53782149    -0.77000
C654        C  0.47565053  0.56055773  0.54698854     0.85200
C655        C  0.55349269  0.55461380  0.47656556     0.85500
O656        O  0.55083457  0.55276205  0.50152042    -0.79400
O657        O  0.48409387  0.71005942  0.75602810    -0.76900
C658        C  0.55287250  0.69882343  0.80364626     0.84100
O659        O  0.47263905  0.73287654  0.85241214    -0.78000
O660        O  0.55326774  0.78283970  0.81819805    -0.79500
O661        O  0.50797649  0.79237382  0.74794176    -0.79300
O662        O  0.46320925  0.74753238  0.74683079    -0.77900
Zn663      Zn  0.49619740  0.71610155  0.79323280     1.55700
O664        O  0.54653453  0.77235110  0.75463699    -0.79300
Cd665      Cd  0.48212098  0.77276504  0.77221152     1.59700
Cd666      Cd  0.49305249  0.76389656  0.83429120     1.59600
O667        O  0.45592541  0.79910783  0.78967306    -0.79300
O668        O  0.50259334  0.75231526  0.79825192    -1.89800
Cd669      Cd  0.54042146  0.75629269  0.79152750     1.59900
O670        O  0.46584814  0.79431475  0.83213630    -0.79300
O671        O  0.56151508  0.72181457  0.79867738    -0.77900
C672        C  0.46140902  0.71339319  0.84095032     0.84600
C673        C  0.46941879  0.72397481  0.74109860     0.84300
O674        O  0.52821477  0.69390861  0.80224346    -0.76900
C675        C  0.53191895  0.78804131  0.74146995     0.85100
O676        O  0.46752424  0.70629116  0.81773096    -0.77000
C677        C  0.45297182  0.80560399  0.81375074     0.85200
C678        C  0.54713774  0.78966100  0.84145415     0.85500
O679        O  0.52612501  0.78115225  0.85263326    -0.79400
O680        O  0.25350806  0.98950889  0.20221767    -0.76900
C681        C  0.30333518  0.05871027  0.19330050     0.84100
O682        O  0.35050544  0.97881450  0.22414060    -0.78000
O683        O  0.31693008  0.05773826  0.27904348    -0.79500
O684        O  0.24418983  0.01512996  0.28411473    -0.79300
O685        O  0.24377834  0.96955306  0.23998289    -0.77900
Zn686      Zn  0.29061224  0.00235687  0.20863742     1.55700
O687        O  0.25308811  0.05335810  0.26471609    -0.79300
Cd688      Cd  0.26921452  0.98880745  0.26579709     1.59700
Cd689      Cd  0.33238415  0.99844926  0.25583615     1.59600
O690        O  0.28744330  0.96427649  0.29370111    -0.79300
O691        O  0.29594105  0.00839321  0.24522320    -1.89800
Cd692      Cd  0.29087705  0.04615483  0.25072230     1.59900
O693        O  0.33029129  0.97042971  0.28511703    -0.79300
O694        O  0.30062946  0.06690219  0.21686000    -0.77900
C695        C  0.33931032  0.96833768  0.20403497     0.84600
C696        C  0.23832460  0.97504946  0.21603394     0.84300
O697        O  0.29907433  0.03478752  0.18726515    -0.76900
C698        C  0.23856926  0.03911821  0.27949406     0.85100
O699        O  0.31588967  0.97457496  0.19727403    -0.77000
C700        C  0.31187627  0.95951889  0.29821123     0.85200
C701        C  0.34045422  0.05098549  0.28479275     0.85500
O702        O  0.35126674  0.03065266  0.27443630    -0.79400
O703        O  0.18981087  0.80866983  0.97036708    -0.76900
C704        C  0.21549347  0.74958470  0.03189218     0.84100
O705        O  0.23010100  0.85942565  0.02750499    -0.78000
O706        O  0.29552534  0.79401863  0.04136829    -0.79500
O707        O  0.26581146  0.76129820  0.95203449    -0.79300
O708        O  0.21830581  0.80687993  0.93743405    -0.77900
Zn709      Zn  0.21090842  0.80062450  0.00279694     1.55700
O710        O  0.28382858  0.75096254  0.99075652    -0.79300
Cd711      Cd  0.25241706  0.79867169  0.95869075     1.59700
Cd712      Cd  0.25984901  0.83998791  0.00606768     1.59600
O713        O  0.28085729  0.82406923  0.94632094    -0.79300
O714        O  0.24753739  0.80420555  0.99657170    -1.89800
Cd715      Cd  0.26675517  0.77702054  0.01692795     1.59900
O716        O  0.27646802  0.85849600  0.97315810    -0.79300
O717        O  0.23982658  0.75378898  0.03714046    -0.77900
C718        C  0.20925183  0.84907757  0.03731446     0.84600
C719        C  0.19498457  0.81086363  0.94597017     0.84300
O720        O  0.20244087  0.76473302  0.01671952    -0.76900
C721        C  0.27952365  0.74604023  0.96649016     0.85100
O722        O  0.20103669  0.82662845  0.02998677    -0.77000
C723        C  0.28650109  0.84754243  0.95279239     0.85200
C724        C  0.30290854  0.81793027  0.04378275     0.85500
O725        O  0.29139072  0.83652731  0.03154091    -0.79400
C726        C  0.35161401  0.92813606  0.83586132     0.88100
C727        C  0.37198171  0.94456122  0.85167841    -0.52200
C728        C  0.38586296  0.93040371  0.86997324     0.11000
C729        C  0.37864461  0.90108660  0.87049003     0.21900
C730        C  0.36845422  0.90592744  0.82388810    -0.52900
C731        C  0.38252225  0.89150663  0.84188996     0.11100
C732        C  0.33486274  0.91489833  0.85716217    -0.52400
C733        C  0.34878127  0.90093257  0.87513406     0.11700
H734        H  0.37532104  0.96534773  0.84980966     0.16200
H735        H  0.38954054  0.88957309  0.88551843     0.01900
H736        H  0.36948123  0.90242960  0.80283364     0.16500
H737        H  0.31347161  0.91661393  0.85806770     0.16300
C738        C  0.65960014  0.85734219  0.92346279     0.88100
C739        C  0.67325130  0.87544896  0.90331863    -0.52200
C740        C  0.65619956  0.89014047  0.88853053     0.11000
C741        C  0.62686939  0.88610172  0.89581999     0.21900
C742        C  0.64316573  0.87672319  0.94005604    -0.52900
C743        C  0.62575680  0.89152091  0.92564293     0.11100
C744        C  0.63930683  0.84168500  0.90773644    -0.52400
C745        C  0.62212867  0.85644892  0.89371506     0.11700
H746        H  0.69446762  0.87742216  0.90123097     0.16200
H747        H  0.61279173  0.89791233  0.88392748     0.01900
H748        H  0.64520398  0.87884664  0.96120380     0.16500
H749        H  0.63821828  0.82036013  0.90808230     0.16300
C750        C  0.42185247  0.84633943  0.14810982     0.88100
C751        C  0.40201266  0.83316007  0.12923620    -0.52200
C752        C  0.38732301  0.85025309  0.11450431     0.11000
C753        C  0.39483005  0.87933443  0.11914977     0.21900
C754        C  0.43899098  0.86305801  0.12933331    -0.52900
C755        C  0.42498167  0.88064417  0.11429510     0.11100
C756        C  0.40571534  0.86639505  0.16375147    -0.52400
C757        C  0.39195662  0.88378899  0.14887474     0.11700
H758        H  0.40080057  0.81220600  0.12605227     0.16200
H759        H  0.38302979  0.89340514  0.10735340     0.01900
H760        H  0.46034318  0.86157810  0.12851748     0.16500
H761        H  0.40602798  0.86744163  0.18512457     0.16300
C762        C  0.33872206  0.15915720  0.07506040     0.88100
C763        C  0.35494886  0.13903047  0.05908918    -0.52200
C764        C  0.37226992  0.12464761  0.07384125     0.11000
C765        C  0.37138495  0.13087756  0.10343034     0.21900
C766        C  0.32513631  0.14220411  0.09612277    -0.52900
C767        C  0.34207266  0.12755138  0.11111999     0.11100
C768        C  0.35965663  0.17511919  0.08999371    -0.52400
C769        C  0.37659033  0.16051834  0.10464017     0.11700
H770        H  0.35355468  0.13550168  0.03824651     0.16200
H771        H  0.38540898  0.11909340  0.11542167     0.01900
H772        H  0.30387787  0.14195959  0.09904018     0.16500
H773        H  0.36122751  0.19636875  0.08875065     0.16300
C774        C  0.58275016  0.16921562  0.84707328     0.88100
C775        C  0.56514197  0.15339911  0.86606370    -0.52200
C776        C  0.57848597  0.13559709  0.88124915     0.11000
C777        C  0.60854362  0.13569920  0.87657584     0.21900
C778        C  0.60388080  0.18189562  0.86497734    -0.52900
C779        C  0.61717767  0.16459269  0.88086389     0.11100
C780        C  0.59839762  0.14846619  0.83169308    -0.52400
C781        C  0.61148421  0.13082811  0.84684297     0.11700
H782        H  0.54376371  0.15528242  0.86646658     0.16200
H783        H  0.61903224  0.12115663  0.88898204     0.01900
H784        H  0.60938836  0.20230571  0.86458460     0.16500
H785        H  0.59849183  0.14729362  0.81033834     0.16300
C786        C  0.65105986  0.08517058  0.15992263     0.88100
C787        C  0.63286696  0.10578814  0.17267643    -0.52200
C788        C  0.61868079  0.12040146  0.15508620     0.11000
C789        C  0.62339101  0.11254700  0.12607421     0.21900
C790        C  0.63164507  0.06863341  0.14337858    -0.52900
C791        C  0.61756529  0.08270704  0.12516443     0.11100
C792        C  0.66758447  0.10030738  0.13989025    -0.52400
C793        C  0.65340346  0.11453161  0.12230822     0.11700
H794        H  0.63103505  0.10853326  0.19377491     0.16200
H795        H  0.61215265  0.12452066  0.11165720     0.01900
H796        H  0.62799150  0.04793229  0.14656189     0.16500
H797        H  0.68907741  0.09991444  0.13970718     0.16300
O798        O  0.47647036  0.98937859  0.94012518    -0.76900
C799        C  0.52614283  0.06085459  0.95032845     0.84100
O800        O  0.54720169  0.96377230  0.99719012    -0.78000
O801        O  0.53219048  0.05081966  0.03550180    -0.79500
O802        O  0.44121127  0.03207288  0.01891146    -0.79300
O803        O  0.44435326  0.98582459  0.96979915    -0.77900
Zn804      Zn  0.50806863  0.00406966  0.96004864     1.55700
O805        O  0.47066374  0.06465545  0.01891284    -0.79300
Cd806      Cd  0.46173864  0.00037291  0.00372875     1.59700
Cd807      Cd  0.52215049  0.98635670  0.02060090     1.59600
O808        O  0.45793803  0.97143847  0.03169215    -0.79300
O809        O  0.49960136  0.00929172  0.99713169    -1.89800
Cd810      Cd  0.50510611  0.04731127  0.00544155     1.59900
O811        O  0.49895978  0.96026421  0.04305926    -0.79300
O812        O  0.51994212  0.06819206  0.97350105    -0.77900
C813        C  0.55035635  0.96296473  0.97227493     0.84600
C814        C  0.45311481  0.98242614  0.94652627     0.84300
O815        O  0.52227484  0.03728772  0.94270582    -0.76900
C816        C  0.44767324  0.05573740  0.02389928     0.85100
O817        O  0.53689138  0.97732719  0.95676074    -0.77000
C818        C  0.47392396  0.95753005  0.04508516     0.85200
C819        C  0.54598970  0.03502429  0.04927184     0.85500
O820        O  0.54480022  0.01013159  0.04592281    -0.79400
O821        O  0.97580382  0.80306548  0.24744361    -0.76900
C822        C  0.04534167  0.81233706  0.19696820     0.84100
O823        O  0.96542262  0.78003638  0.15097222    -0.78000
O824        O  0.04461364  0.72632987  0.18559012    -0.79500
O825        O  0.00333053  0.72273173  0.25809943    -0.79300
O826        O  0.95586791  0.76520542  0.25735225    -0.77900
Zn827      Zn  0.98881165  0.79715782  0.21039451     1.55700
O828        O  0.04130468  0.74274712  0.24863874    -0.79300
Cd829      Cd  0.97617610  0.73992924  0.23264266     1.59700
Cd830      Cd  0.98589345  0.74954380  0.16975019     1.59600
O831        O  0.95201109  0.71166643  0.21465784    -0.79300
O832        O  0.99532029  0.76069607  0.20584255    -1.89800
Cd833      Cd  0.03326059  0.75531849  0.21075551     1.59900
O834        O  0.96037183  0.71812048  0.17199093    -0.79300
O835        O  0.05354307  0.78881763  0.19961584    -0.77900
C836        C  0.95532087  0.80082376  0.16098624     0.84600
C837        C  0.96160661  0.78902459  0.26270426     0.84300
O838        O  0.02148160  0.81863334  0.20194972    -0.76900
C839        C  0.02742656  0.72800578  0.26350290     0.85100
O840        O  0.96131461  0.80825044  0.18420621    -0.77000
C841        C  0.94895853  0.70555518  0.19041321     0.85200
C842        C  0.03849614  0.72219044  0.16165654     0.85500
O843        O  0.01882126  0.73364320  0.15071429    -0.79400
O844        O  0.79701314  0.25508989  0.98063814    -0.76900
C845        C  0.80850415  0.20830531  0.04953462     0.84100
O846        O  0.77248070  0.15872000  0.97317579    -0.78000
O847        O  0.72391855  0.19473699  0.05399434    -0.79500
O848        O  0.71385584  0.26474161  0.00799091    -0.79300
O849        O  0.75845450  0.26699895  0.96299954    -0.77900
Zn850      Zn  0.79025170  0.21832421  0.99342648     1.55700
O851        O  0.73526728  0.25830617  0.04586087    -0.79300
Cd852      Cd  0.73305845  0.24090107  0.98159632     1.59700
Cd853      Cd  0.74196990  0.17854580  0.99285756     1.59600
O854        O  0.70564558  0.22308975  0.95629051    -0.79300
O855        O  0.75388043  0.21455116  0.00144964    -1.89800
Cd856      Cd  0.75044816  0.22118150  0.03939762     1.59900
O857        O  0.71203807  0.18076668  0.96551530    -0.79300
O858        O  0.78581386  0.21389292  0.05887139    -0.77900
C859        C  0.79238158  0.16870803  0.96124540     0.84600
C860        C  0.78286417  0.27134853  0.96771144     0.84300
O861        O  0.81288465  0.20956811  0.02490376    -0.76900
C862        C  0.71912644  0.27135235  0.03162282     0.85100
O863        O  0.79965140  0.19224670  0.96569351    -0.77000
C864        C  0.70005004  0.19882938  0.95293544     0.85200
C865        C  0.71697414  0.17157231  0.04757430     0.85500
O866        O  0.72449362  0.16097731  0.02597528    -0.79400
O867        O  0.24493794  0.02332709  0.70501509    -0.76900
C868        C  0.19405177  0.95523486  0.69550005     0.84100
O869        O  0.14819954  0.03442128  0.72652182    -0.78000
O870        O  0.18287076  0.95549430  0.78126193    -0.79500
O871        O  0.25678122  0.99788978  0.78485994    -0.79300
O872        O  0.25396661  0.04432147  0.74245783    -0.77900
Zn873      Zn  0.20771472  0.01134275  0.71141677     1.55700
O874        O  0.24732559  0.95984522  0.76542225    -0.79300
Cd875      Cd  0.23022603  0.02396202  0.76832587     1.59700
Cd876      Cd  0.16717869  0.01540462  0.75829592     1.59600
O877        O  0.21286244  0.04806617  0.79682909    -0.79300
O878        O  0.20327461  0.00480278  0.74775258    -1.89800
Cd879      Cd  0.20884969  0.96698729  0.75269978     1.59900
O880        O  0.16993923  0.04371879  0.78741860    -0.79300
O881        O  0.19884475  0.94657150  0.71858083    -0.77900
C882        C  0.15986733  0.04580874  0.70729200     0.84600
C883        C  0.25965745  0.03843567  0.71872114     0.84300
O884        O  0.19719663  0.97945536  0.68996204    -0.76900
C885        C  0.26260050  0.97411283  0.77948153     0.85100
O886        O  0.18355084  0.04034627  0.70098912    -0.77000
C887        C  0.18861918  0.05382583  0.80090564     0.85200
C888        C  0.15945912  0.96274346  0.78699437     0.85500
O889        O  0.14891161  0.98330985  0.77685183    -0.79400
C890        C  0.16058215  0.15682514  0.91886352     0.88100
C891        C  0.14530691  0.13753139  0.93669251    -0.52200
C892        C  0.12729078  0.12229281  0.92358435     0.11000
C893        C  0.12636335  0.12741041  0.89373903     0.21900
C894        C  0.17304327  0.13873281  0.89800615    -0.52900
C895        C  0.15528160  0.12379913  0.88443858     0.11100
C896        C  0.13916945  0.17206388  0.90406136    -0.52400
C897        C  0.12053490  0.15711762  0.89176496     0.11700
H898        H  0.14827026  0.13611132  0.95780093     0.16200
H899        H  0.11193116  0.11463384  0.88347657     0.01900
H900        H  0.19398736  0.13658115  0.89456561     0.16500
H901        H  0.13870292  0.19337731  0.90392150     0.16300
C902        C  0.14988489  0.92649093  0.16067785     0.88100
C903        C  0.12949620  0.94281567  0.14496028    -0.52200
C904        C  0.11500249  0.92845862  0.12723711     0.11000
C905        C  0.12173355  0.89891419  0.12736108     0.21900
C906        C  0.13256928  0.90525965  0.17363084    -0.52900
C907        C  0.11778530  0.89074641  0.15639367     0.11100
C908        C  0.16611850  0.91216231  0.13983125    -0.52400
C909        C  0.15177064  0.89808064  0.12231913     0.11700
H910        H  0.12686629  0.96387241  0.14733712     0.16200
H911        H  0.10990138  0.88723422  0.11315838     0.01900
H912        H  0.13056311  0.90285826  0.19470603     0.16500
H913        H  0.18750198  0.91376582  0.13847495     0.16300
C914        C  0.92431941  0.16731508  0.15049383     0.88100
C915        C  0.94060746  0.15219088  0.12951718    -0.52200
C916        C  0.92563564  0.13563662  0.11427318     0.11000
C917        C  0.89601956  0.13585776  0.12102341     0.21900
C918        C  0.90274971  0.18122197  0.13458102    -0.52900
C919        C  0.88792750  0.16500241  0.11928328     0.11100
C920        C  0.91013474  0.14544632  0.16561884    -0.52400
C921        C  0.89543963  0.12899998  0.15049452     0.11700
H922        H  0.96148031  0.15262948  0.12731167     0.16200
H923        H  0.88390610  0.12256375  0.10854383     0.01900
H924        H  0.89972405  0.20233497  0.13506414     0.16500
H925        H  0.91180129  0.14303260  0.18680864     0.16300
C926        C  0.83440766  0.85874391  0.07631919     0.88100
C927        C  0.82190629  0.87674652  0.09727752    -0.52200
C928        C  0.83970868  0.89103292  0.11162837     0.11000
C929        C  0.86860423  0.88668628  0.10282342     0.21900
C930        C  0.85044644  0.87813276  0.05924932    -0.52900
C931        C  0.86882050  0.89251384  0.07294506     0.11100
C932        C  0.85521696  0.84258870  0.09098363    -0.52400
C933        C  0.87325748  0.85692719  0.10454191     0.11700
H934        H  0.80076368  0.87893775  0.09988022     0.16200
H935        H  0.88304150  0.89817091  0.11448936     0.01900
H936        H  0.84792190  0.88003793  0.03819978     0.16500
H937        H  0.85579403  0.82126254  0.09036915     0.16300
C938        C  0.07583951  0.84619299  0.84604854     0.88100
C939        C  0.09829845  0.83279660  0.86123302    -0.52200
C940        C  0.11247064  0.84924724  0.87689019     0.11000
C941        C  0.10296547  0.87803291  0.87622973     0.21900
C942        C  0.05928657  0.85975127  0.86776451    -0.52900
C943        C  0.07328685  0.87697236  0.88324450     0.11100
C944        C  0.08878363  0.86925082  0.83153532    -0.52400
C945        C  0.10302329  0.88571803  0.84705514     0.11700
H946        H  0.10243520  0.81189671  0.85996628     0.16200
H947        H  0.11494957  0.89156639  0.88846539     0.01900
H948        H  0.03829610  0.85686559  0.87090883     0.16500
H949        H  0.08702034  0.87217807  0.81042560     0.16300
C950        C  0.84940115  0.08436130  0.83904266     0.88100
C951        C  0.86743551  0.10558904  0.82732695    -0.52200
C952        C  0.88152710  0.11923580  0.84558659     0.11000
C953        C  0.87713793  0.10991905  0.87411094     0.21900
C954        C  0.86886673  0.06701379  0.85461305    -0.52900
C955        C  0.88304869  0.08019279  0.87332438     0.11100
C956        C  0.83283388  0.09846765  0.85991120    -0.52400
C957        C  0.84704135  0.11156004  0.87851605     0.11700
H958        H  0.87017512  0.10902582  0.80646957     0.16200
H959        H  0.88888751  0.12075367  0.88900247     0.01900
H960        H  0.87182345  0.04623432  0.85073986     0.16500
H961        H  0.81135547  0.09812251  0.85975418     0.16300
O962        O  0.98028146  0.06487243  0.02140510    -0.76900
C963        C  0.05276379  0.05216708  0.97406421     0.84100
O964        O  0.95547407  0.00625802  0.95071185    -0.78000
O965        O  0.04180944  0.96719988  0.96801113    -0.79500
O966        O  0.02178071  0.98629293  0.05900133    -0.79300
O967        O  0.97677301  0.03576649  0.05380338    -0.77900
Zn968      Zn  0.99515239  0.04383565  0.99068738     1.55700
O969        O  0.05396374  0.98298174  0.02933208    -0.79300
Cd970      Cd  0.99053810  0.00134694  0.03724545     1.59700
Cd971      Cd  0.97730374  0.98332452  0.97675701     1.59600
O972        O  0.96071541  0.97411221  0.04049994    -0.79300
O973        O  0.99998170  0.00683418  0.99952118    -1.89800
Cd974      Cd  0.03791770  0.99731094  0.99465733     1.59900
O975        O  0.95053836  0.96176794  0.99960585    -0.79300
O976        O  0.05945335  0.02866973  0.97965906    -0.77900
C977        C  0.95483986  0.03107989  0.94728982     0.84600
C978        C  0.97361483  0.05893707  0.04485527     0.84300
O979        O  0.02933335  0.06052172  0.97800909    -0.76900
C980        C  0.04509409  0.97939241  0.05253295     0.85100
O981        O  0.96896211  0.04661094  0.96105535    -0.77000
C982        C  0.94711184  0.96044298  0.02446485     0.85200
C983        C  0.02593634  0.95344988  0.95430057     0.85500
O984        O  0.00094908  0.95714959  0.95518338    -0.79400
O985        O  0.20312422  0.26273636  0.97741337    -0.76900
C986        C  0.19422595  0.31248309  0.04507169     0.84100
O987        O  0.22972982  0.35872484  0.96770722    -0.78000
O988        O  0.27917784  0.32102483  0.04884946    -0.79500
O989        O  0.28620809  0.25148902  0.00303450    -0.79300
O990        O  0.24097907  0.25089976  0.95857822    -0.77900
Zn991      Zn  0.21121093  0.29976351  0.98938323     1.55700
O992        O  0.26377671  0.25824971  0.04013262    -0.79300
Cd993      Cd  0.26738428  0.27622403  0.97667929     1.59700
Cd994      Cd  0.26020466  0.33904097  0.98839893     1.59600
O995        O  0.29419315  0.29384475  0.95066634    -0.79300
O996        O  0.24767997  0.30313958  0.99664023    -1.89800
Cd997      Cd  0.25112968  0.29623675  0.03431234     1.59900
O998        O  0.29103842  0.33619068  0.96202281    -0.79300
O999        O  0.21665446  0.30566565  0.05427061    -0.77900
C1000       C  0.20990205  0.34817846  0.95595221     0.84600
C1001       C  0.21672991  0.24649814  0.96389415     0.84300
O1002       O  0.18930729  0.31103640  0.02053942    -0.76900
C1003       C  0.27986335  0.24471441  0.02638154     0.85100
O1004       O  0.20254718  0.32485727  0.96111668    -0.77000
C1005       C  0.30150700  0.31779837  0.94862323     0.85200
C1006       C  0.28550788  0.34458653  0.04338907     0.85500
O1007       O  0.27734724  0.35599918  0.02237342    -0.79400
O1008       O  0.76060388  0.48673853  0.70319829    -0.76900
C1009       C  0.80546620  0.55716221  0.69223407     0.84100
O1010       O  0.85739851  0.47916698  0.72688614    -0.78000
O1011       O  0.82053702  0.55930220  0.77727403    -0.79500
O1012       O  0.74945813  0.51130105  0.78484540    -0.79300
O1013       O  0.75089017  0.46608817  0.74053536    -0.77900
Zn1014     Zn  0.79693060  0.50094515  0.70973717     1.55700
O1015       O  0.75658070  0.54991998  0.76551854    -0.79300
Cd1016     Cd  0.77556309  0.48642635  0.76610057     1.59700
Cd1017     Cd  0.83825556  0.49931251  0.75779787     1.59600
O1018       O  0.79427701  0.46259677  0.79386285    -0.79300
O1019       O  0.80163599  0.50761660  0.74611223    -1.89800
Cd1020     Cd  0.79424162  0.54519661  0.75025139     1.59900
O1021       O  0.83674130  0.47347397  0.78951531    -0.79300
O1022       O  0.80128701  0.56588799  0.71540406    -0.77900
C1023       C  0.84698179  0.46914833  0.70613934     0.84600
C1024       C  0.74546649  0.47202060  0.71673124     0.84300
O1025       O  0.80381925  0.53273697  0.68727502    -0.76900
C1026       C  0.74287869  0.53508235  0.78050221     0.85100
O1027       O  0.82354625  0.47488143  0.69916675    -0.77000
C1028       C  0.81842634  0.46069398  0.80106547     0.85200
C1029       C  0.84441526  0.55372180  0.78292416     0.85500
O1030       O  0.85595873  0.53334989  0.77354741    -0.79400
O1031       O  0.97294878  0.19595188  0.79928741    -0.76900
C1032       C  0.03202090  0.22428358  0.73791937     0.84100
O1033       O  0.02590735  0.23422632  0.84911800    -0.78000
O1034       O  0.04132826  0.30344498  0.78440861    -0.79500
O1035       O  0.95207881  0.26979247  0.75073551    -0.79300
O1036       O  0.93967540  0.22416908  0.80010039    -0.77900
Zn1037     Zn  0.00454264  0.21784569  0.78974833     1.55700
O1038       O  0.98995650  0.29013829  0.74095726    -0.79300
Cd1039     Cd  0.95943025  0.25830736  0.78897243     1.59700
Cd1040     Cd  0.00752866  0.26544825  0.82951758     1.59600
O1041       O  0.94715178  0.28766947  0.81366357    -0.79300
O1042       O  0.99766756  0.25411214  0.79381757    -1.89800
Cd1043     Cd  0.01713407  0.27439297  0.76691473     1.59900
O1044       O  0.97487842  0.28285877  0.84761105    -0.79300
O1045       O  0.03732121  0.24834646  0.74274530    -0.77900
C1046       C  0.03658845  0.21379296  0.83900183     0.84600
C1047       C  0.94876790  0.20108717  0.80378982     0.84300
O1048       O  0.01755306  0.21081421  0.75335288    -0.76900
C1049       C  0.96604552  0.28413731  0.73556676     0.85100
O1050       O  0.03200593  0.20716496  0.81530502    -0.77000
C1051       C  0.95426054  0.29303613  0.83710997     0.85200
C1052       C  0.04604495  0.30840069  0.80870277     0.85500
O1053       O  0.03514028  0.29521847  0.82703212    -0.79400
C1054       C  0.84140333  0.35884311  0.92313587     0.88100
C1055       C  0.85817607  0.37765608  0.94012138    -0.52200
C1056       C  0.87653153  0.39178876  0.92626756     0.11000
C1057       C  0.87602373  0.38595540  0.89640736     0.21900
C1058       C  0.82914152  0.37740317  0.90250143    -0.52900
C1059       C  0.84713549  0.39127563  0.88791756     0.11100
C1060       C  0.86143310  0.34222785  0.90810865    -0.52400
C1061       C  0.87973050  0.35609541  0.89449492     0.11700
H1062       H  0.85572732  0.37982867  0.96115709     0.16200
H1063       H  0.89088101  0.39683856  0.88478637     0.01900
H1064       H  0.80802508  0.38036356  0.90059364     0.16500
H1065       H  0.86131482  0.32088379  0.90852999     0.16300
C1066       C  0.14848808  0.42993584  0.83594823     0.88100
C1067       C  0.13098760  0.40821312  0.82377638    -0.52200
C1068       C  0.11616949  0.39417709  0.84154705     0.11000
C1069       C  0.12073394  0.40350046  0.87035325     0.21900
C1070       C  0.12835453  0.44673969  0.85140613    -0.52900
C1071       C  0.11434588  0.43309665  0.86987336     0.11100
C1072       C  0.16499849  0.41604089  0.85692438    -0.52400
C1073       C  0.15085968  0.40234247  0.87485373     0.11700
H1074       H  0.13007268  0.40454384  0.80284285     0.16200
H1075       H  0.10917910  0.39290370  0.88547617     0.01900
H1076       H  0.12545078  0.46759403  0.84841341     0.16500
H1077       H  0.18644596  0.41715713  0.85768500     0.16300
C1078       C  0.92033633  0.67389900  0.84896538     0.88100
C1079       C  0.89658304  0.68524751  0.86422650    -0.52200
C1080       C  0.88260153  0.66705711  0.87818790     0.11000
C1081       C  0.89371106  0.63890232  0.87586445     0.21900
C1082       C  0.93670799  0.65982396  0.87046580    -0.52900
C1083       C  0.92287077  0.64129711  0.88425447     0.11100
C1084       C  0.90840185  0.65169779  0.83238648    -0.52400
C1085       C  0.89491938  0.63328052  0.84614461     0.11700
H1086       H  0.89170238  0.70585815  0.86602765     0.16200
H1087       H  0.88253409  0.62392767  0.88716590     0.01900
H1088       H  0.95767434  0.66315744  0.87352453     0.16500
H1089       H  0.91057120  0.65060957  0.81112333     0.16300
C1090       C  0.07840801  0.34795540  0.14792533     0.88100
C1091       C  0.06151354  0.36491246  0.12899957    -0.52200
C1092       C  0.07572632  0.38282257  0.11461892     0.11000
C1093       C  0.10573337  0.38159334  0.12006491     0.21900
C1094       C  0.09865059  0.33520604  0.12939619    -0.52900
C1095       C  0.11344514  0.35261132  0.11529940     0.11100
C1096       C  0.09419644  0.36773484  0.16421531    -0.52400
C1097       C  0.10796337  0.38569618  0.14999966     0.11700
H1098       H  0.04004800  0.36321613  0.12728283     0.16200
H1099       H  0.11749900  0.39574187  0.10835018     0.01900
H1100       H  0.10059304  0.31422012  0.12654123     0.16500
H1101       H  0.09385768  0.36789018  0.18555661     0.16300
C1102       C  0.84813839  0.58479545  0.16164999     0.88100
C1103       C  0.86770564  0.56777731  0.14563655    -0.52200
C1104       C  0.88269644  0.58164527  0.12799286     0.11000
C1105       C  0.87713993  0.61142754  0.12850007     0.21900
C1106       C  0.86629346  0.60524948  0.17476036    -0.52900
C1107       C  0.88101284  0.61972733  0.15753638     0.11100
C1108       C  0.83244156  0.60022408  0.14105503    -0.52400
C1109       C  0.84726591  0.61358207  0.12320912     0.11700
H1110       H  0.86909776  0.54662046  0.14756960     0.16200
H1111       H  0.88938369  0.62272011  0.11446201     0.01900
H1112       H  0.86880808  0.60733372  0.19580734     0.16500
H1113       H  0.81098784  0.60010788  0.14052078     0.16300
C1114       C  0.15796839  0.66340417  0.08139182     0.88100
C1115       C  0.17087401  0.64685726  0.10333902    -0.52200
C1116       C  0.15355896  0.63146614  0.11703891     0.11000
C1117       C  0.12473411  0.63364816  0.10718053     0.21900
C1118       C  0.14400661  0.64254221  0.06419511    -0.52900
C1119       C  0.12623771  0.62747240  0.07764342     0.11100
C1120       C  0.13563207  0.67837847  0.09487036    -0.52400
C1121       C  0.11809290  0.66307828  0.10799909     0.11700
H1122       H  0.19195420  0.64593981  0.10689924     0.16200
H1123       H  0.11043689  0.62112754  0.11798754     0.01900
H1124       H  0.14713434  0.64023244  0.04320975     0.16500
H1125       H  0.13365624  0.69961506  0.09376087     0.16300
O1126       O  0.02771306  0.56617608  0.02210311    -0.76900
C1127       C  0.97350226  0.56485716  0.95309958     0.84100
O1128       O  0.95709726  0.51073449  0.04914795    -0.78000
O1129       O  0.96346305  0.47908811  0.95761482    -0.79500
O1130       O  0.05566612  0.48912381  0.96963887    -0.79300
O1131       O  0.05939106  0.53628894  0.01744477    -0.77900
Zn1132     Zn  0.99405865  0.54952146  0.00800216     1.55700
O1133       O  0.02406165  0.49334423  0.93945257    -0.79300
Cd1134     Cd  0.03896090  0.50392064  0.00400138     1.59700
Cd1135     Cd  0.97901710  0.48875805  0.02198697     1.59600
O1136       O  0.04402823  0.47545655  0.03263038    -0.79300
O1137       O  0.00076379  0.51281998  0.99902302    -1.89800
Cd1138     Cd  0.99211623  0.50752178  0.96098272     1.59900
O1139       O  0.00323376  0.46255850  0.04292139    -0.79300
O1140       O  0.97746303  0.54176264  0.94419290    -0.77900
C1141       C  0.95417023  0.53554185  0.05143349     0.84600
C1142       C  0.05175268  0.55898058  0.02476427     0.84300
O1143       O  0.97952119  0.57064319  0.97681890    -0.76900
C1144       C  0.04726810  0.48613591  0.94612729     0.85100
O1145       O  0.96663580  0.55162909  0.03679201    -0.77000
C1146       C  0.02830297  0.46069492  0.04539739     0.85200
C1147       C  0.95017046  0.46514883  0.97363139     0.85500
O1148       O  0.95305316  0.46691554  0.99855551    -0.79400
O1149       O  0.52530528  0.81943853  0.29991518    -0.76900
C1150       C  0.46892217  0.78978266  0.23677675     0.84100
O1151       O  0.47618524  0.77907899  0.34981628    -0.78000
O1152       O  0.45791112  0.71261455  0.28523752    -0.79500
O1153       O  0.54798555  0.74435088  0.25034796    -0.79300
O1154       O  0.56008685  0.79314078  0.29777174    -0.77900
Zn1155     Zn  0.49498670  0.79610487  0.28981887     1.55700
O1156       O  0.51052508  0.72203949  0.24381673    -0.79300
Cd1157     Cd  0.54157816  0.75769114  0.28826896     1.59700
Cd1158     Cd  0.49495985  0.74792920  0.33010947     1.59600
O1159       O  0.55626192  0.72987777  0.31352041    -0.79300
O1160       O  0.50334481  0.76020243  0.29414612    -1.89800
Cd1161     Cd  0.48322193  0.74019057  0.26750225     1.59900
O1162       O  0.52838957  0.73012392  0.34735829    -0.79300
O1163       O  0.46432289  0.76551163  0.24119465    -0.77900
C1164       C  0.46418638  0.79869879  0.33939000     0.84600
C1165       C  0.54996504  0.81556447  0.30277671     0.84300
O1166       O  0.48216148  0.80359003  0.25305760    -0.76900
C1167       C  0.53401085  0.72817127  0.23705470     0.85100
O1168       O  0.46735423  0.80475654  0.31533920    -0.77000
C1169       C  0.54980591  0.72222602  0.33647947     0.85200
C1170       C  0.45512946  0.70607881  0.30940372     0.85500
O1171       O  0.46773236  0.71771214  0.32776549    -0.79400
O1172       O  0.51784150  0.21380919  0.74515146    -0.76900
C1173       C  0.44950917  0.20554592  0.69552293     0.84100
O1174       O  0.52956119  0.23722624  0.64965895    -0.78000
O1175       O  0.44949235  0.29082816  0.68337260    -0.79500
O1176       O  0.49443777  0.29590053  0.75557358    -0.79300
O1177       O  0.53882047  0.25052758  0.75623986    -0.77900
Zn1178     Zn  0.50576805  0.22127621  0.70835291     1.55700
O1179       O  0.45563522  0.27676153  0.74712752    -0.79300
Cd1180     Cd  0.52041014  0.27693738  0.73090661     1.59700
Cd1181     Cd  0.50966938  0.26874092  0.66799733     1.59600
O1182       O  0.54581168  0.30434034  0.71347978    -0.79300
O1183       O  0.49982484  0.25763019  0.70394846    -1.89800
Cd1184     Cd  0.46180237  0.26271183  0.70944716     1.59900
O1185       O  0.53633367  0.29946971  0.67084575    -0.79300
O1186       O  0.44077821  0.22852716  0.70052178    -0.77900
C1187       C  0.53947130  0.21662162  0.66036927     0.84600
C1188       C  0.53256345  0.22668002  0.76093190     0.84300
O1189       O  0.47390178  0.20009790  0.69815070    -0.76900
C1190       C  0.47032563  0.29148766  0.76131396     0.85100
O1191       O  0.53355618  0.21010330  0.68374932    -0.77000
C1192       C  0.54861785  0.31114028  0.68941382     0.85200
C1193       C  0.45612877  0.29593658  0.65975674     0.85500
O1194       O  0.47665953  0.28565557  0.64915283    -0.79400
O1195       O  0.70177161  0.98068688  0.81068371    -0.76900
C1196       C  0.76341358  0.03776524  0.77996454     0.84100
O1197       O  0.65191891  0.03528210  0.77169662    -0.78000
O1198       O  0.71669478  0.04658818  0.70175260    -0.79500
O1199       O  0.74936068  0.95837597  0.73566498    -0.79300
O1200       O  0.70049435  0.94738410  0.78249683    -0.77900
Zn1201     Zn  0.71107683  0.01172306  0.78788903     1.55700
O1202       O  0.75928269  0.99576579  0.71504612    -0.79300
Cd1203     Cd  0.71116143  0.96651113  0.74796554     1.59700
Cd1204     Cd  0.67052951  0.01506246  0.74070270     1.59600
O1205       O  0.68540106  0.95445582  0.71954027    -0.79300
O1206       O  0.70640760  0.00448753  0.75174406    -1.89800
Cd1207     Cd  0.73365751  0.02286839  0.73082707     1.59900
O1208       O  0.65172605  0.98267571  0.72314914    -0.79300
O1209       O  0.75830161  0.04330049  0.75600525    -0.77900
C1210       C  0.66331926  0.04643918  0.79127746     0.84600
C1211       C  0.69736244  0.95659648  0.80562536     0.84300
O1212       O  0.74795488  0.02367743  0.79377965    -0.76900
C1213       C  0.76462924  0.97205709  0.72111918     0.85100
O1214       O  0.68677597  0.04047672  0.79803778    -0.77000
C1215       C  0.66206068  0.96173849  0.71361132     0.85200
C1216       C  0.69246960  0.05235175  0.69756050     0.85500
O1217       O  0.67371951  0.04251119  0.71102243    -0.79400
C1218       C  0.34763441  0.08752705  0.66420645     0.88100
C1219       C  0.36806416  0.07057758  0.64939873    -0.52200
C1220       C  0.38240793  0.08411126  0.63118635     0.11000
C1221       C  0.37601986  0.11359707  0.63013702     0.21900
C1222       C  0.36470796  0.10934461  0.67655793    -0.52900
C1223       C  0.37927007  0.12328371  0.65875822     0.11100
C1224       C  0.33156084  0.10131908  0.64273761    -0.52400
C1225       C  0.34614279  0.11462372  0.62471001     0.11700
H1226       H  0.37051550  0.04961819  0.65235816     0.16200
H1227       H  0.38812621  0.12441570  0.61553739     0.01900
H1228       H  0.36671564  0.11277936  0.69748217     0.16500
H1229       H  0.31010941  0.10050039  0.64196149     0.16300
C1230       C  0.57703510  0.84623460  0.65329697     0.88100
C1231       C  0.55993013  0.86118692  0.63293682    -0.52200
C1232       C  0.57388174  0.87867332  0.61793301     0.11000
C1233       C  0.60378932  0.87881202  0.62381566     0.21900
C1234       C  0.59811851  0.83294747  0.63610268    -0.52900
C1235       C  0.61249037  0.84983204  0.62093027     0.11100
C1236       C  0.59163239  0.86765357  0.66853674    -0.52400
C1237       C  0.60537162  0.88473561  0.65339218     0.11700
H1238       H  0.53885333  0.85869438  0.63038378     0.16200
H1239       H  0.61523603  0.89284431  0.61161619     0.01900
H1240       H  0.60086473  0.81182614  0.63531188     0.16500
H1241       H  0.59090997  0.86934621  0.68985301     0.16300
C1242       C  0.66221668  0.15586845  0.58178706     0.88100
C1243       C  0.67497906  0.13749693  0.60212120    -0.52200
C1244       C  0.65728077  0.12320673  0.61625940     0.11000
C1245       C  0.62815083  0.12773109  0.60820521     0.21900
C1246       C  0.64565719  0.13693150  0.56457576    -0.52900
C1247       C  0.62754575  0.12230044  0.57828993     0.11100
C1248       C  0.64192507  0.17187717  0.59721810    -0.52400
C1249       C  0.62343396  0.15758706  0.61023158     0.11700
H1250       H  0.69600363  0.13460173  0.60469217     0.16200
H1251       H  0.61414967  0.11554290  0.61964766     0.01900
H1252       H  0.64759622  0.13583031  0.54335809     0.16500
H1253       H  0.64174967  0.19321522  0.59695757     0.16300
C1254       C  0.33965755  0.85700778  0.41612526     0.88100
C1255       C  0.35463843  0.87617333  0.43438404    -0.52200
C1256       C  0.37324058  0.89114966  0.42193158     0.11000
C1257       C  0.37469441  0.88611935  0.39206197     0.21900
C1258       C  0.32774298  0.87513278  0.39501625    -0.52900
C1259       C  0.34594444  0.89011579  0.38210124     0.11100
C1260       C  0.36109538  0.84163185  0.40164465    -0.52400
C1261       C  0.38020962  0.85634828  0.39005551     0.11700
H1262       H  0.35151005  0.87706149  0.45548749     0.16200
H1263       H  0.38929260  0.89891887  0.38215840     0.01900
H1264       H  0.30688806  0.87717378  0.39076234     0.16500
H1265       H  0.36117352  0.82031234  0.40118660     0.16300
C1266       C  0.64887975  0.93424416  0.33972923     0.88100
C1267       C  0.63081808  0.91387748  0.32644102    -0.52200
C1268       C  0.61608820  0.89942262  0.34350947     0.11000
C1269       C  0.61985345  0.90721021  0.37257322     0.21900
C1270       C  0.62923152  0.95112460  0.35592512    -0.52900
C1271       C  0.61425889  0.93698408  0.37346112     0.11100
C1272       C  0.66460896  0.91884035  0.36028089    -0.52400
C1273       C  0.64978243  0.90512741  0.37780392     0.11700
H1274       H  0.62918823  0.91124179  0.30531951     0.16200
H1275       H  0.60748594  0.89547653  0.38619672     0.01900
H1276       H  0.62737421  0.97222473  0.35406158     0.16500
H1277       H  0.68607223  0.91913067  0.36104114     0.16300
C1278       C  0.42364694  0.16634560  0.34889523     0.88100
C1279       C  0.40278614  0.17933487  0.36653695    -0.52200
C1280       C  0.38813185  0.16223770  0.38100664     0.11000
C1281       C  0.39639711  0.13327674  0.37745980     0.21900
C1282       C  0.44056323  0.15054792  0.36881548    -0.52900
C1283       C  0.42628799  0.13290571  0.38350060     0.11100
C1284       C  0.40883805  0.14544594  0.33303698    -0.52400
C1285       C  0.39493051  0.12803552  0.34771122     0.11700
H1286       H  0.40035429  0.20042149  0.36843860     0.16200
H1287       H  0.38458776  0.11931566  0.38940236     0.01900
H1288       H  0.46172912  0.15278654  0.37120456     0.16500
H1289       H  0.40976009  0.14417449  0.31169763     0.16300
O1290       O  0.51755940  0.94924271  0.52646722    -0.76900
C1291       C  0.44669094  0.95958097  0.47709048     0.84100
O1292       O  0.54147434  0.00773665  0.45360250    -0.78000
O1293       O  0.45568747  0.04322492  0.46873779    -0.79500
O1294       O  0.47383013  0.02684732  0.56189851    -0.79300
O1295       O  0.51982388  0.97861893  0.55881108    -0.77900
Zn1296     Zn  0.50397675  0.96968964  0.49473130     1.55700
O1297       O  0.44208985  0.02933836  0.53165661    -0.79300
Cd1298     Cd  0.50608553  0.01260941  0.54131749     1.59700
Cd1299     Cd  0.52051239  0.03019875  0.48107072     1.59600
O1300       O  0.53553752  0.04025356  0.54533403    -0.79300
O1301       O  0.49772141  0.00647362  0.50337079    -1.89800
Cd1302     Cd  0.45946687  0.01481437  0.49756153     1.59900
O1303       O  0.54760122  0.05114952  0.50457640    -0.79300
O1304       O  0.43874720  0.98232285  0.48396827    -0.77900
C1305       C  0.54395656  0.98288463  0.45128487     0.84600
C1306       C  0.52338049  0.95540987  0.55012312     0.84300
O1307       O  0.47070631  0.95258776  0.48024852    -0.76900
C1308       C  0.45034860  0.03292643  0.55513275     0.85100
O1309       O  0.53148454  0.96699924  0.46613584    -0.77000
C1310       C  0.55008094  0.05317643  0.52954721     0.85200
C1311       C  0.47182211  0.05813579  0.45662843     0.85500
O1312       O  0.49679980  0.05666108  0.46010082    -0.79400
C1313       C  0.45739153  0.12200759  0.42082985     0.25200
C1314       C  0.43851739  0.11387870  0.40213421    -0.22900
C1315       C  0.43121518  0.08722585  0.40125318     0.20100
C1316       C  0.44215516  0.06920821  0.41895511     0.25100
C1317       C  0.46094956  0.07733009  0.43764991    -0.22900
C1318       C  0.46863119  0.10383422  0.43833828     0.20000
F1319       F  0.48624846  0.11229728  0.45663817    -0.12800
F1320       F  0.46429395  0.14768324  0.42274829    -0.15200
F1321       F  0.43486240  0.04359109  0.41739383    -0.15200
F1322       F  0.41402276  0.07836818  0.38274210    -0.12800
C1323       C  0.59571699  0.93985803  0.41923371     0.25200
C1324       C  0.59605541  0.94918259  0.39313183    -0.22900
C1325       C  0.57912596  0.97012963  0.38633487     0.20100
C1326       C  0.56243167  0.98149119  0.40526846     0.25100
C1327       C  0.56202378  0.97183485  0.43119723    -0.22900
C1328       C  0.57869733  0.95081873  0.43787876     0.20000
F1329       F  0.57906928  0.94130311  0.46283372    -0.12800
F1330       F  0.61253087  0.92065893  0.42715673    -0.15200
F1331       F  0.54593559  0.00123986  0.39801242    -0.15200
F1332       F  0.57808348  0.97908441  0.36120644    -0.12800
C1333       C  0.38278582  0.92626088  0.45561487     0.25200
C1334       C  0.39191721  0.90861906  0.43635607    -0.22900
C1335       C  0.41920854  0.90725412  0.43132050     0.20100
C1336       C  0.43696663  0.92328148  0.44506191     0.25100
C1337       C  0.42785898  0.94129315  0.46403459    -0.22900
C1338       C  0.40052889  0.94256394  0.46917498     0.20000
F1339       F  0.39094130  0.95945651  0.48748827    -0.12800
F1340       F  0.35656593  0.92820260  0.46086856    -0.15200
F1341       F  0.46307468  0.92168834  0.43913970    -0.15200
F1342       F  0.42889959  0.88997779  0.41344176    -0.12800
C1343       C  0.56318781  0.08662217  0.56304004     0.25200
C1344       C  0.56995812  0.07126377  0.54107453    -0.22900
C1345       C  0.59586859  0.07267272  0.53125661     0.20100
C1346       C  0.61473723  0.08888474  0.54345441     0.25100
C1347       C  0.60787245  0.10449785  0.56537618    -0.22900
C1348       C  0.58171661  0.10330778  0.57476778     0.20000
F1349       F  0.57357559  0.11895352  0.59478670    -0.12800
F1350       F  0.53825246  0.08597230  0.57285603    -0.15200
F1351       F  0.63991148  0.08858905  0.53429596    -0.15200
F1352       F  0.60323649  0.05752074  0.51055290    -0.12800
C1353       C  0.54249702  0.88996650  0.58103981     0.25200
C1354       C  0.56089422  0.89796534  0.60021073    -0.22900
C1355       C  0.56621911  0.92486515  0.60323581     0.20100
C1356       C  0.55360658  0.94343066  0.58734714     0.25100
C1357       C  0.53555165  0.93552275  0.56775712    -0.22900
C1358       C  0.53008681  0.90855547  0.56480379     0.20000
F1359       F  0.51238961  0.90020342  0.54652380    -0.12800
F1360       F  0.53687192  0.86411787  0.57772894    -0.15200
F1361       F  0.55960616  0.96918942  0.59081168    -0.15200
F1362       F  0.58317272  0.93336943  0.62211457    -0.12800
C1363       C  0.41029116  0.05985538  0.56665060     0.25200
C1364       C  0.43248406  0.04521494  0.57487721    -0.22900
C1365       C  0.43789848  0.04340880  0.60210297     0.20100
C1366       C  0.42159899  0.05598444  0.62046738     0.25100
C1367       C  0.39990704  0.07092324  0.61201912    -0.22900
C1368       C  0.39431870  0.07265688  0.58503162     0.20000
F1369       F  0.37294465  0.08629741  0.57642060    -0.12800
F1370       F  0.40421146  0.06231146  0.54073977    -0.15200
F1371       F  0.42725908  0.05396898  0.64651207    -0.15200
F1372       F  0.45884017  0.02933032  0.61107105    -0.12800
C1373       C  0.68146487  0.08264328  0.63041681     0.25200
C1374       C  0.66612782  0.10474086  0.63694712    -0.22900
C1375       C  0.66124876  0.11038877  0.66349930     0.20100
C1376       C  0.67043963  0.09354830  0.68321421     0.25100
C1377       C  0.68529100  0.07116976  0.67673048    -0.22900
C1378       C  0.69108533  0.06598510  0.65021228     0.20000
F1379       F  0.70521430  0.04435379  0.64346350    -0.12800
F1380       F  0.68686626  0.07712100  0.60484928    -0.15200
F1381       F  0.66526819  0.09931389  0.70877687    -0.15200
F1382       F  0.64855339  0.13278063  0.67041526    -0.12800
C1383       C  0.66027799  0.92871636  0.67706175     0.25200
C1384       C  0.64687693  0.94477222  0.69539828    -0.22900
C1385       C  0.61925104  0.94291128  0.69728522     0.20100
C1386       C  0.60555686  0.92424002  0.68242649     0.25100
C1387       C  0.61919771  0.90732603  0.66526961    -0.22900
C1388       C  0.64647978  0.91023394  0.66205257     0.20000
F1389       F  0.66001149  0.89399626  0.64571080    -0.12800
F1390       F  0.68689252  0.93040170  0.67410831    -0.15200
F1391       F  0.57898479  0.92205249  0.68540126    -0.15200
F1392       F  0.60566125  0.95796432  0.71466657    -0.12800
C1393       C  0.44054399  0.16515937  0.66843498     0.25200
C1394       C  0.43129601  0.18483104  0.68571507    -0.22900
C1395       C  0.40451067  0.18466548  0.69302014     0.20100
C1396       C  0.38755764  0.16492553  0.68387109     0.25100
C1397       C  0.39692903  0.14510702  0.66696942    -0.22900
C1398       C  0.42346955  0.14561426  0.65904421     0.20000
F1399       F  0.43314472  0.12665046  0.64293526    -0.12800
F1400       F  0.46608455  0.16500411  0.66027915    -0.15200
F1401       F  0.36183329  0.16528388  0.69140282    -0.15200
F1402       F  0.39484056  0.20322064  0.70958879    -0.12800
C1403       C  0.56787164  0.20669482  0.62090525     0.25200
C1404       C  0.55873270  0.19976291  0.64603837    -0.22900
C1405       C  0.56900407  0.17674971  0.65792882     0.20100
C1406       C  0.58913758  0.16232991  0.64585660     0.25100
C1407       C  0.59962982  0.17048968  0.62171203    -0.22900
C1408       C  0.58780842  0.19208418  0.60878413     0.20000
F1409       F  0.59543286  0.19910743  0.58417345    -0.12800
F1410       F  0.55795719  0.22791775  0.60810112    -0.15200
F1411       F  0.59886693  0.14094030  0.65841180    -0.15200
F1412       F  0.56009021  0.16828424  0.68164147    -0.12800
C1413       C  0.55546524  0.85948838  0.32545928     0.25200
C1414       C  0.56686483  0.83732526  0.31302335    -0.22900
C1415       C  0.59463132  0.83576819  0.31155496     0.20100
C1416       C  0.61046498  0.85581385  0.32188635     0.25100
C1417       C  0.59903183  0.87768694  0.33422280    -0.22900
C1418       C  0.57146350  0.87936543  0.33605646     0.20000
F1419       F  0.56001546  0.90061200  0.34748205    -0.12800
F1420       F  0.52883718  0.86190761  0.32771737    -0.15200
F1421       F  0.63714513  0.85383072  0.31995881    -0.15200
F1422       F  0.60659842  0.81498245  0.29985326    -0.12800
C1423       C  0.43792144  0.83996469  0.34520599     0.25200
C1424       C  0.44570067  0.81512506  0.35483295    -0.22900
C1425       C  0.43453192  0.80598743  0.37832194     0.20100
C1426       C  0.41458142  0.82034496  0.39069308     0.25100
C1427       C  0.40464980  0.84378649  0.37935777    -0.22900
C1428       C  0.41776356  0.85412372  0.35736989     0.20000
F1429       F  0.41091077  0.87758463  0.34693265    -0.12800
F1430       F  0.44948100  0.85056496  0.32357572    -0.15200
F1431       F  0.40517206  0.81120454  0.41394978    -0.15200
F1432       F  0.44213609  0.78270357  0.38890985    -0.12800
C1433       C  0.06257872  0.60026621  0.04994163     0.25200
C1434       C  0.07113637  0.57696409  0.03756017    -0.22900
C1435       C  0.09828425  0.57041042  0.03884815     0.20100
C1436       C  0.11622269  0.58679296  0.05193890     0.25100
C1437       C  0.10744236  0.60977166  0.06424970    -0.22900
C1438       C  0.08055031  0.61634883  0.06323949     0.20000
F1439       F  0.07167155  0.63868077  0.07479015    -0.12800
F1440       F  0.03674282  0.60746578  0.04961922    -0.15200
F1441       F  0.14213504  0.57996427  0.05305232    -0.15200
F1442       F  0.10762025  0.54809151  0.02759681    -0.12800
C1443       C  0.91830825  0.56674687  0.06389595     0.25200
C1444       C  0.93550340  0.54632313  0.07112669    -0.22900
C1445       C  0.93505377  0.53708343  0.09720468     0.20100
C1446       C  0.91806463  0.54852568  0.11583125     0.25100
C1447       C  0.90089284  0.56911584  0.10856011    -0.22900
C1448       C  0.90102964  0.57779264  0.08225257     0.20000
F1449       F  0.88381745  0.59645856  0.07390437    -0.12800
F1450       F  0.91773266  0.57560942  0.03870526    -0.15200
F1451       F  0.91906611  0.54004318  0.14112771    -0.15200
F1452       F  0.95178866  0.51770319  0.10489776    -0.12800
C1453       C  0.07193369  0.42905544  0.09732080     0.25200
C1454       C  0.06330469  0.40274353  0.09685936    -0.22900
C1455       C  0.04264471  0.39582229  0.07955510     0.20100
C1456       C  0.03087225  0.41475386  0.06322501     0.25100
C1457       C  0.03977145  0.44088650  0.06352042    -0.22900
C1458       C  0.06048088  0.44781822  0.08065881     0.20000
F1459       F  0.06919765  0.47301439  0.08177521    -0.12800
F1460       F  0.09090750  0.43693988  0.11450244    -0.15200
F1461       F  0.01146419  0.40731809  0.04632450    -0.15200
F1462       F  0.03439807  0.37053451  0.07777089    -0.12800
C1463       C  0.93921217  0.59622779  0.89399365     0.25200
C1464       C  0.93580777  0.62225361  0.90222505    -0.22900
C1465       C  0.94496907  0.62973689  0.92720636     0.20100
C1466       C  0.95730525  0.61131303  0.94380470     0.25100
C1467       C  0.96100982  0.58502554  0.93551504    -0.22900
C1468       C  0.95178131  0.57789614  0.91022836     0.20000
F1469       F  0.95464990  0.55304234  0.90102079    -0.12800
F1470       F  0.93067259  0.58855267  0.86986635    -0.15200
F1471       F  0.96550987  0.61930516  0.96795523    -0.15200
F1472       F  0.94153471  0.65477780  0.93570614    -0.12800
C1473       C  0.07675719  0.46373430  0.88073817     0.25200
C1474       C  0.09655364  0.44623469  0.88913113    -0.22900
C1475       C  0.10015683  0.44216663  0.91624272     0.20100
C1476       C  0.08453842  0.45548963  0.93462865     0.25100
C1477       C  0.06459318  0.47300964  0.92636431    -0.22900
C1478       C  0.06077617  0.47680456  0.89911575     0.20000
F1479       F  0.04180522  0.49342637  0.89017588    -0.12800
F1480       F  0.07258719  0.46785282  0.85467050    -0.15200
F1481       F  0.08866585  0.45072805  0.96059653    -0.15200
F1482       F  0.11935403  0.42577722  0.92509085    -0.12800
C1483       C  0.88753623  0.42653538  0.96022262     0.25200
C1484       C  0.89538450  0.41047716  0.93894358    -0.22900
C1485       C  0.92161775  0.41225203  0.92991986     0.20100
C1486       C  0.93922078  0.43013232  0.94123649     0.25100
C1487       C  0.93139113  0.44595671  0.96247931    -0.22900
C1488       C  0.90554026  0.44375892  0.97215148     0.20000
F1489       F  0.89738634  0.45908140  0.99243881    -0.12800
F1490       F  0.86221665  0.42634510  0.96897216    -0.15200
F1491       F  0.96429045  0.43150112  0.93183729    -0.15200
F1492       F  0.93068816  0.39609167  0.91071969    -0.12800
C1493       C  0.06813104  0.35226390  0.80036447     0.25200
C1494       C  0.06430938  0.33016368  0.81649384    -0.22900
C1495       C  0.07682876  0.32975600  0.84129358     0.20100
C1496       C  0.09289099  0.35057813  0.84962437     0.25100
C1497       C  0.09741763  0.37252898  0.83332323    -0.22900
C1498       C  0.08412194  0.37326497  0.80875559     0.20000
F1499       F  0.08540847  0.39485359  0.79318184    -0.12800
F1500       F  0.05556141  0.35410689  0.77681512    -0.15200
F1501       F  0.10407723  0.34872603  0.87374796    -0.15200
F1502       F  0.07387625  0.30887036  0.85763187    -0.12800
C1503       C  0.93359996  0.30699778  0.87940547     0.25200
C1504       C  0.93766711  0.31128490  0.85246044    -0.22900
C1505       C  0.92459358  0.33237082  0.83999864     0.20100
C1506       C  0.90681280  0.34808519  0.85403951     0.25100
C1507       C  0.90160088  0.34270476  0.88058579    -0.22900
C1508       C  0.91574786  0.32255652  0.89333537     0.20000
F1509       F  0.91180662  0.31752182  0.91926493    -0.12800
F1510       F  0.94572163  0.28676114  0.89194383    -0.15200
F1511       F  0.89362186  0.36753910  0.84132454    -0.15200
F1512       F  0.92875439  0.33753878  0.81412331    -0.12800
C1513       C  0.84766983  0.44873590  0.83948767     0.25200
C1514       C  0.82548801  0.44329278  0.82357298    -0.22900
C1515       C  0.81007283  0.42111461  0.82949124     0.20100
C1516       C  0.81713112  0.40428039  0.85012546     0.25100
C1517       C  0.83935252  0.40962576  0.86612683    -0.22900
C1518       C  0.85422741  0.43241476  0.86074817     0.20000
F1519       F  0.87463809  0.43962080  0.87652995    -0.12800
F1520       F  0.86268650  0.47036414  0.83500038    -0.15200
F1521       F  0.80254582  0.38222337  0.85369967    -0.15200
F1522       F  0.78851412  0.41512755  0.81472858    -0.12800
C1523       C  0.84388459  0.58590054  0.82014006     0.25200
C1524       C  0.85842295  0.57175196  0.80112469    -0.22900
C1525       C  0.88573501  0.57621396  0.79903270     0.20100
C1526       C  0.89789690  0.59546294  0.81458687     0.25100
C1527       C  0.88302647  0.61030354  0.83273563    -0.22900
C1528       C  0.85612092  0.60486715  0.83584801     0.20000
F1529       F  0.84127816  0.61906997  0.85293115    -0.12800
F1530       F  0.81757880  0.58170708  0.82328050    -0.15200
F1531       F  0.92415511  0.60002462  0.81153025    -0.15200
F1532       F  0.90039715  0.56300151  0.78102141    -0.12800
C1533       C  0.15574869  0.34236743  0.05436972     0.25200
C1534       C  0.17374357  0.32304414  0.06308804    -0.22900
C1535       C  0.17250802  0.31464733  0.08939594     0.20100
C1536       C  0.15322245  0.32465275  0.10633986     0.25100
C1537       C  0.13492779  0.34357028  0.09751461    -0.22900
C1538       C  0.13662586  0.35263305  0.07148227     0.20000
F1539       F  0.11924662  0.37077933  0.06232168    -0.12800
F1540       F  0.15697345  0.35173071  0.02938903    -0.15200
F1541       F  0.15256881  0.31594643  0.13157619    -0.15200
F1542       F  0.18962861  0.29629380  0.09864013    -0.12800
C1543       C  0.19391871  0.39020598  0.93475962     0.25200
C1544       C  0.19467411  0.36260209  0.93553121    -0.22900
C1545       C  0.18029482  0.34835322  0.91639548     0.20100
C1546       C  0.16561097  0.36132927  0.89711991     0.25100
C1547       C  0.16428728  0.38873730  0.89682505    -0.22900
C1548       C  0.17878613  0.40314008  0.91557562     0.20000
F1549       F  0.17856413  0.42978899  0.91501048    -0.12800
F1550       F  0.20759896  0.40467381  0.95260453    -0.15200
F1551       F  0.15425967  0.34707440  0.87762435    -0.15200
F1552       F  0.18127005  0.32171542  0.91553393    -0.12800
C1553       C  0.92498388  0.13447522  0.82852015     0.25200
C1554       C  0.89955920  0.14048587  0.83752839    -0.22900
C1555       C  0.88998868  0.16617310  0.83500906     0.20100
C1556       C  0.90574024  0.18581231  0.82383590     0.25100
C1557       C  0.93141725  0.18001061  0.81464783    -0.22900
C1558       C  0.94084078  0.15397930  0.81729220     0.20000
F1559       F  0.96526622  0.14711506  0.80867723    -0.12800
F1560       F  0.93415630  0.10945279  0.82985850    -0.15200
F1561       F  0.89569207  0.21045398  0.82201357    -0.15200
F1562       F  0.86496403  0.17203666  0.84258669    -0.12800
C1563       C  0.92645689  0.07835438  0.89712163     0.25200
C1564       C  0.90190744  0.06685112  0.89135000    -0.22900
C1565       C  0.89531183  0.04273680  0.90326734     0.20100
C1566       C  0.91281925  0.03061243  0.92083760     0.25100
C1567       C  0.93710516  0.04253426  0.92711159    -0.22900
C1568       C  0.94383069  0.06637835  0.91482077     0.20000
F1569       F  0.96747364  0.07802865  0.91967984    -0.12800
F1570       F  0.93396007  0.10101883  0.88529138    -0.15200
F1571       F  0.90545602  0.00781792  0.93257532    -0.15200
F1572       F  0.87141904  0.03141534  0.89883924    -0.12800
C1573       C  0.79829584  0.03511888  0.81446849     0.25200
C1574       C  0.78767035  0.04793621  0.79241643    -0.22900
C1575       C  0.79937157  0.07129021  0.78366746     0.20100
C1576       C  0.82034253  0.08246747  0.79760444     0.25100
C1577       C  0.83103634  0.06987359  0.82012806    -0.22900
C1578       C  0.81922061  0.04611262  0.82840104     0.20000
F1579       F  0.82625284  0.03433923  0.85131547    -0.12800
F1580       F  0.78779649  0.01222835  0.82331794    -0.15200
F1581       F  0.82809423  0.10681581  0.79016159    -0.15200
F1582       F  0.78922421  0.08453053  0.76277189    -0.12800
C1583       C  0.06222835  0.92181947  0.94241530     0.25200
C1584       C  0.03724836  0.93282471  0.93687386    -0.22900
C1585       C  0.02388513  0.92467736  0.91402796     0.20100
C1586       C  0.03543496  0.90652263  0.89682566     0.25100
C1587       C  0.06043788  0.89540244  0.90235119    -0.22900
C1588       C  0.07357490  0.90329515  0.92549834     0.20000
F1589       F  0.09740744  0.89305787  0.93211760    -0.12800
F1590       F  0.07576439  0.92879787  0.96443588    -0.15200
F1591       F  0.02259335  0.90106913  0.87400745    -0.15200
F1592       F  0.00009207  0.93520051  0.90757634    -0.12800
C1593       C  0.91479936  0.91117585  0.06972147     0.25200
C1594       C  0.88873358  0.90995747  0.05993415    -0.22900
C1595       C  0.88239264  0.92487395  0.03731528     0.20100
C1596       C  0.90160204  0.94051249  0.02501925     0.25100
C1597       C  0.92719077  0.94234581  0.03560458    -0.22900
C1598       C  0.93353652  0.92755401  0.05804912     0.20000
F1599       F  0.95829529  0.92843018  0.06838125    -0.12800
F1600       F  0.92273841  0.89579560  0.09003450    -0.15200
F1601       F  0.89486817  0.95471508  0.00342195    -0.15200
F1602       F  0.85744288  0.92510151  0.02748433    -0.12800
C1603       C  0.96604497  0.10608507  0.05861938     0.25200
C1604       C  0.96120993  0.07903156  0.06210534    -0.22900
C1605       C  0.94394921  0.07111065  0.08232678     0.20100
C1606       C  0.93214539  0.08960696  0.09881048     0.25100
C1607       C  0.93744518  0.11647186  0.09573901    -0.22900
C1608       C  0.95444607  0.12461399  0.07549278     0.20000
F1609       F  0.95951933  0.15053278  0.07186072    -0.12800
F1610       F  0.98237208  0.11460564  0.03926279    -0.15200
F1611       F  0.91607105  0.08104929  0.11833756    -0.15200
F1612       F  0.93805581  0.04536442  0.08599313    -0.12800
C1613       C  0.09690138  0.93419135  0.08171474     0.25200
C1614       C  0.09585489  0.94054692  0.10859956    -0.22900
C1615       C  0.07707409  0.95903281  0.11723625     0.20100
C1616       C  0.06024166  0.97149472  0.09917179     0.25100
C1617       C  0.06216320  0.96594948  0.07209585    -0.22900
C1618       C  0.08030836  0.94676046  0.06368523     0.20000
F1619       F  0.08172778  0.93976897  0.03793754    -0.12800
F1620       F  0.11463725  0.91640884  0.07260886    -0.15200
F1621       F  0.04250361  0.98938431  0.10811865    -0.15200
F1622       F  0.07478682  0.96479831  0.14321278    -0.12800
C1623       C  0.06532257  0.20623286  0.87874320     0.25200
C1624       C  0.05529833  0.19744986  0.85450552    -0.22900
C1625       C  0.06428220  0.17314120  0.84456126     0.20100
C1626       C  0.08423375  0.15914565  0.85741040     0.25100
C1627       C  0.09621249  0.16929069  0.88020996    -0.22900
C1628       C  0.08527146  0.19220596  0.89156669     0.20000
F1629       F  0.09362936  0.20108559  0.91535909    -0.12800
F1630       F  0.05644433  0.22881852  0.88983616    -0.15200
F1631       F  0.09194503  0.13598112  0.84692518    -0.15200
F1632       F  0.05413877  0.16288586  0.82203114    -0.12800
C1633       C  0.10693283  0.07772466  0.92927177     0.25200
C1634       C  0.10884057  0.10409804  0.93712819    -0.22900
C1635       C  0.09227448  0.11332683  0.95732004     0.20100
C1636       C  0.07403215  0.09648815  0.96937028     0.25100
C1637       C  0.07245572  0.06994613  0.96187964    -0.22900
C1638       C  0.08916336  0.06070559  0.94176873     0.20000
F1639       F  0.08758140  0.03539167  0.93352703    -0.12800
F1640       F  0.12243945  0.06838171  0.90961067    -0.15200
F1641       F  0.05807410  0.10606817  0.98855314    -0.15200
F1642       F  0.09315667  0.13891005  0.96478061    -0.12800
C1643       C  0.16785729  0.19050500  0.95505653     0.25200
C1644       C  0.17838860  0.17662197  0.93330810    -0.22900
C1645       C  0.20236212  0.18604290  0.92240161     0.20100
C1646       C  0.21517932  0.20796092  0.93300493     0.25100
C1647       C  0.20413001  0.22196573  0.95412277    -0.22900
C1648       C  0.18060432  0.21258741  0.96537953     0.20000
F1649       F  0.16940182  0.22512023  0.98614263    -0.12800
F1650       F  0.14402360  0.18394105  0.96535691    -0.15200
F1651       F  0.23771687  0.21641047  0.92127685    -0.15200
F1652       F  0.21270603  0.17599670  0.90002623    -0.12800
C1653       C  0.29549127  0.07236535  0.71696410     0.25200
C1654       C  0.28386661  0.04947442  0.70675391    -0.22900
C1655       C  0.29506931  0.03774223  0.68440811     0.20100
C1656       C  0.31666088  0.04920127  0.67189811     0.25100
C1657       C  0.32853767  0.07235618  0.68185830    -0.22900
C1658       C  0.31719616  0.08388661  0.70455977     0.20000
F1659       F  0.32513729  0.10757037  0.71375622    -0.12800
F1660       F  0.28477229  0.08480643  0.73803740    -0.15200
F1661       F  0.32446021  0.03853517  0.64869951    -0.15200
F1662       F  0.28467308  0.01545185  0.67398662    -0.12800
C1663       C  0.16249555  0.09216082  0.81715765     0.25200
C1664       C  0.18143730  0.07254399  0.82200128    -0.22900
C1665       C  0.19220573  0.07019595  0.84741021     0.20100
C1666       C  0.18330493  0.08647120  0.86784905     0.25100
C1667       C  0.16387832  0.10571587  0.86309457    -0.22900
C1668       C  0.15431715  0.10896274  0.83735920     0.20000
F1669       F  0.13837740  0.12943702  0.83133831    -0.12800
F1670       F  0.15250748  0.09559595  0.79257827    -0.15200
F1671       F  0.19350999  0.08330304  0.89236429    -0.15200
F1672       F  0.21064038  0.05154369  0.85265742    -0.12800
C1673       C  0.15792588  0.92977661  0.82366552     0.25200
C1674       C  0.14438853  0.94612782  0.80564975    -0.22900
C1675       C  0.11665287  0.94489964  0.80454651     0.20100
C1676       C  0.10300910  0.92624791  0.81944356     0.25100
C1677       C  0.11678977  0.90870259  0.83584986    -0.22900
C1678       C  0.14419501  0.91126655  0.83865333     0.20000
F1679       F  0.15791192  0.89464676  0.85448394    -0.12800
F1680       F  0.18460704  0.93114951  0.82628544    -0.15200
F1681       F  0.07632184  0.92462762  0.81713739    -0.15200
F1682       F  0.10281482  0.96057934  0.78789739    -0.12800
C1683       C  0.78749616  0.30697187  0.93402915     0.25200
C1684       C  0.79527182  0.29581363  0.95802682    -0.22900
C1685       C  0.81613767  0.30736482  0.97209784     0.20100
C1686       C  0.82985960  0.32882529  0.96183322     0.25100
C1687       C  0.82242024  0.34026814  0.93749691    -0.22900
C1688       C  0.80119772  0.32841497  0.92358793     0.20000
F1689       F  0.79505453  0.33572637  0.89866104    -0.12800
F1690       F  0.76791940  0.29582374  0.91953062    -0.15200
F1691       F  0.85187695  0.33660522  0.97492286    -0.15200
F1692       F  0.82394353  0.29732992  0.99562206    -0.12800
C1693       C  0.85150114  0.18449719  0.05731328     0.25200
C1694       C  0.82973363  0.19865414  0.06742928    -0.22900
C1695       C  0.82757443  0.20165186  0.09493523     0.20100
C1696       C  0.84628913  0.19033087  0.11177732     0.25100
C1697       C  0.86732508  0.17554287  0.10156678    -0.22900
C1698       C  0.86995323  0.17292556  0.07426881     0.20000
F1699       F  0.89087186  0.15977776  0.06398075    -0.12800
F1700       F  0.85480736  0.18135299  0.03099912    -0.15200
F1701       F  0.84375221  0.19359458  0.13817089    -0.15200
F1702       F  0.80745054  0.21565789  0.10563415    -0.12800
C1703       C  0.82996475  0.16381394  0.92902485     0.25200
C1704       C  0.80732524  0.15314034  0.94132504    -0.22900
C1705       C  0.79871551  0.12802876  0.93346824     0.20100
C1706       C  0.81203069  0.11427565  0.91365913     0.25100
C1707       C  0.83410739  0.12537381  0.90090709    -0.22900
C1708       C  0.84307869  0.15012220  0.90909123     0.20000
F1709       F  0.86393748  0.16174255  0.89708111    -0.12800
F1710       F  0.83935645  0.18785495  0.93580693    -0.15200
F1711       F  0.80335878  0.08988912  0.90716175    -0.15200
F1712       F  0.77711086  0.11679609  0.94455928    -0.12800
C1713       C  0.09626585  0.84606557  0.15416557     0.25200
C1714       C  0.09798207  0.87109075  0.16571543    -0.22900
C1715       C  0.08122336  0.87697042  0.18709810     0.20100
C1716       C  0.06406784  0.85794221  0.19728067     0.25100
C1717       C  0.06358961  0.83251937  0.18662479    -0.22900
C1718       C  0.07966776  0.82682760  0.16481997     0.20000
F1719       F  0.07873385  0.80278161  0.15329238    -0.12800
F1720       F  0.11078020  0.83996353  0.13271149    -0.15200
F1721       F  0.04829679  0.86421886  0.21792504    -0.15200
F1722       F  0.08098045  0.90138146  0.19782606    -0.12800
C1723       C  0.90730907  0.67924469  0.19487318     0.25200
C1724       C  0.93198974  0.68306737  0.18296107    -0.22900
C1725       C  0.94007263  0.66573730  0.16292911     0.20100
C1726       C  0.92376983  0.64498286  0.15493510     0.25100
C1727       C  0.89876753  0.64141686  0.16642161    -0.22900
C1728       C  0.89073033  0.65883585  0.18651626     0.20000
F1729       F  0.86638440  0.65676139  0.19748884    -0.12800
F1730       F  0.89873204  0.69598291  0.21382070    -0.15200
F1731       F  0.93285773  0.62796257  0.13649572    -0.15200
F1732       F  0.96411627  0.66856409  0.15144433    -0.12800
C1733       C  0.92112936  0.83683612  0.15814272     0.25200
C1734       C  0.93571641  0.81659705  0.14575734    -0.22900
C1735       C  0.93058966  0.81118530  0.11902664     0.20100
C1736       C  0.91089917  0.82493634  0.10544499     0.25100
C1737       C  0.89583068  0.84434732  0.11821915    -0.22900
C1738       C  0.90147975  0.85053978  0.14445821     0.20000
F1739       F  0.88701598  0.86894281  0.15733070    -0.12800
F1740       F  0.92508987  0.84290223  0.18385660    -0.15200
F1741       F  0.90654988  0.81925995  0.07968243    -0.15200
F1742       F  0.94441161  0.79244958  0.10593853    -0.12800
C1743       C  0.06934217  0.68388516  0.15983832     0.25200
C1744       C  0.05540150  0.70396201  0.14660094    -0.22900
C1745       C  0.05962097  0.70763660  0.11956518     0.20100
C1746       C  0.07901387  0.69307801  0.10658436     0.25100
C1747       C  0.09438382  0.67455716  0.12040011    -0.22900
C1748       C  0.08861652  0.66924366  0.14677742     0.20000
F1749       F  0.10289136  0.65122378  0.16042226    -0.12800
F1750       F  0.06492270  0.67896492  0.18571817    -0.15200
F1751       F  0.08339316  0.69766816  0.08063539    -0.15200
F1752       F  0.04628880  0.72646231  0.10607113    -0.12800
C1753       C  0.68213241  0.13743579  0.05755911     0.25200
C1754       C  0.69973655  0.15710908  0.06620168    -0.22900
C1755       C  0.70013705  0.16379428  0.09314668     0.20100
C1756       C  0.68400231  0.15069428  0.11100747     0.25100
C1757       C  0.66689841  0.13081248  0.10246900    -0.22900
C1758       C  0.66575380  0.12442390  0.07562497     0.20000
F1759       F  0.64963754  0.10486314  0.06712532    -0.12800
F1760       F  0.68061493  0.13093964  0.03169819    -0.15200
F1761       F  0.68551957  0.15700491  0.13693774    -0.15200
F1762       F  0.71679034  0.18251589  0.10251565    -0.12800
C1763       C  0.58752937  0.03381168  0.07669545     0.25200
C1764       C  0.56383998  0.04639877  0.06958227    -0.22900
C1765       C  0.55772344  0.07074166  0.08135651     0.20100
C1766       C  0.57491569  0.08228092  0.09960233     0.25100
C1767       C  0.59887911  0.07002638  0.10628027    -0.22900
C1768       C  0.60497836  0.04559809  0.09460150     0.20000
F1769       F  0.62833543  0.03347709  0.09968539    -0.12800
F1770       F  0.59438198  0.01056776  0.06553870    -0.15200
F1771       F  0.56765222  0.10515252  0.11123740    -0.15200
F1772       F  0.53475760  0.08328992  0.07558083    -0.12800
C1773       C  0.60972109  0.08830038  0.82259985     0.25200
C1774       C  0.62481646  0.10802530  0.83481990    -0.22900
C1775       C  0.65236028  0.10746907  0.83262177     0.20100
C1776       C  0.66477762  0.08715284  0.81892101     0.25100
C1777       C  0.64975157  0.06730716  0.80648586    -0.22900
C1778       C  0.62205754  0.06808915  0.80852885     0.20000
F1779       F  0.60693495  0.04926239  0.79707915    -0.12800
F1780       F  0.58293249  0.08896547  0.82390602    -0.15200
F1781       F  0.69152681  0.08767379  0.81679976    -0.15200
F1782       F  0.66718723  0.12747778  0.84223593    -0.12800
C1783       C  0.66066956  0.15766180  0.90457655     0.25200
C1784       C  0.63825513  0.17334283  0.89977047    -0.22900
C1785       C  0.63641730  0.19779970  0.91289591     0.20100
C1786       C  0.65674955  0.20652833  0.92955123     0.25100
C1787       C  0.67911051  0.19079650  0.93406300    -0.22900
C1788       C  0.68073927  0.16625287  0.92142775     0.20000
F1789       F  0.70215143  0.15055664  0.92498739    -0.12800
F1790       F  0.66374645  0.13407808  0.89269334    -0.15200
F1791       F  0.65401466  0.22992560  0.94207012    -0.15200
F1792       F  0.61446769  0.21295324  0.91054304    -0.12800
C1793       C  0.53248125  0.10684719  0.93310119     0.25200
C1794       C  0.53890060  0.07994871  0.93216437    -0.22900
C1795       C  0.55852594  0.07158344  0.91441836     0.20100
C1796       C  0.57153724  0.08967058  0.89820055     0.25100
C1797       C  0.56494685  0.11651952  0.89896674    -0.22900
C1798       C  0.54516715  0.12487595  0.91650270     0.20000
F1799       F  0.53854644  0.15065659  0.91805910    -0.12800
F1800       F  0.51363961  0.11569609  0.94988136    -0.15200
F1801       F  0.59026710  0.08070880  0.88137540    -0.15200
F1802       F  0.56575298  0.04592990  0.91328014    -0.12800
C1803       C  0.56906258  0.21388845  0.82537762     0.25200
C1804       C  0.56669054  0.18628178  0.82786332    -0.22900
C1805       C  0.54963137  0.17322871  0.81011505     0.20100
C1806       C  0.53811088  0.18639275  0.78897428     0.25100
C1807       C  0.54284463  0.21331840  0.78492568    -0.22900
C1808       C  0.55751590  0.22708313  0.80404560     0.20000
F1809       F  0.56086844  0.25347134  0.80220932    -0.12800
F1810       F  0.58192627  0.22872427  0.84337390    -0.15200
F1811       F  0.52290307  0.17229224  0.77206448    -0.15200
F1812       F  0.54510197  0.14703690  0.81242676    -0.12800
C1813       C  0.39460596  0.08083106  0.07005477     0.25200
C1814       C  0.39183537  0.10688924  0.06154823    -0.22900
C1815       C  0.40765754  0.11608741  0.04076132     0.20100
C1816       C  0.42581764  0.09946045  0.02853066     0.25100
C1817       C  0.42817504  0.07319357  0.03653869    -0.22900
C1818       C  0.41245299  0.06399176  0.05744367     0.20000
F1819       F  0.41490282  0.03889424  0.06611511    -0.12800
F1820       F  0.37964115  0.07154263  0.09014428    -0.15200
F1821       F  0.44074848  0.10890932  0.00849056    -0.15200
F1822       F  0.40581786  0.14139124  0.03254936    -0.12800
C1823       C  0.30482038  0.19546810  0.07643842     0.25200
C1824       C  0.31990331  0.17805499  0.06080460    -0.22900
C1825       C  0.31925971  0.18167043  0.03315237     0.20100
C1826       C  0.30541763  0.20266966  0.02204271     0.25100
C1827       C  0.29191335  0.22080188  0.03797432    -0.22900
C1828       C  0.29098824  0.21635157  0.06523729     0.20000
F1829       F  0.27782239  0.23297749  0.08147888    -0.12800
F1830       F  0.30481381  0.19335279  0.10308071    -0.15200
F1831       F  0.30588705  0.20549186  0.99547140    -0.15200
F1832       F  0.33287675  0.16628229  0.01629018    -0.12800
C1833       C  0.45983847  0.89339129  0.08085986     0.25200
C1834       C  0.43784030  0.90024742  0.09647661    -0.22900
C1835       C  0.42845619  0.92627358  0.09534484     0.20100
C1836       C  0.44044775  0.94475902  0.07885452     0.25100
C1837       C  0.46250811  0.93796619  0.06348704    -0.22900
C1838       C  0.47219782  0.91213812  0.06475580     0.20000
F1839       F  0.49288895  0.90472549  0.04950243    -0.12800
F1840       F  0.46885671  0.86829981  0.08041117    -0.15200
F1841       F  0.43075099  0.96962269  0.07830820    -0.15200
F1842       F  0.40814356  0.93425563  0.11079490    -0.12800
C1843       C  0.45852865  0.83930643  0.18170796     0.25200
C1844       C  0.43688735  0.82867391  0.16761266    -0.22900
C1845       C  0.42634250  0.80449471  0.17671356     0.20100
C1846       C  0.43746517  0.79139730  0.19829233     0.25100
C1847       C  0.45868767  0.80239969  0.21233698    -0.22900
C1848       C  0.46940780  0.82626388  0.20338077     0.20000
F1849       F  0.49016128  0.83756840  0.21601207    -0.12800
F1850       F  0.46815281  0.86347419  0.17584761    -0.15200
F1851       F  0.42612493  0.76866073  0.20644973    -0.15200
F1852       F  0.40378397  0.79423468  0.16668007    -0.12800
C1853       C  0.68466443  0.92751144  0.87328716     0.25200
C1854       C  0.66573412  0.90810366  0.86757546    -0.22900
C1855       C  0.65734959  0.90477190  0.84144348     0.20100
C1856       C  0.66833093  0.91989088  0.82121772     0.25100
C1857       C  0.68725957  0.93936073  0.82687047    -0.22900
C1858       C  0.69502431  0.94327119  0.85320209     0.20000
F1859       F  0.71300700  0.96205257  0.85946487    -0.12800
F1860       F  0.69288250  0.93142524  0.89842831    -0.15200
F1861       F  0.65985217  0.91596628  0.79615914    -0.15200
F1862       F  0.63888869  0.88649089  0.83533828    -0.12800
C1863       C  0.60302730  0.93520019  0.92726287     0.25200
C1864       C  0.60674069  0.90999494  0.93783587    -0.22900
C1865       C  0.59172983  0.90226230  0.95979541     0.20100
C1866       C  0.57365132  0.91959778  0.97124752     0.25100
C1867       C  0.57002935  0.94486780  0.96076597    -0.22900
C1868       C  0.58473623  0.95243765  0.93853072     0.20000
F1869       F  0.58178784  0.97676559  0.92799824    -0.12800
F1870       F  0.61755688  0.94341083  0.90639920    -0.15200
F1871       F  0.55886900  0.91127289  0.99188849    -0.15200
F1872       F  0.59381895  0.87754225  0.96957014    -0.12800
C1873       C  0.40100374  0.93787754  0.91636351     0.25200
C1874       C  0.40396154  0.94291472  0.88933955    -0.22900
C1875       C  0.42338781  0.96085685  0.88114241     0.20100
C1876       C  0.43935339  0.97375604  0.89963212     0.25100
C1877       C  0.43602192  0.96917289  0.92675552    -0.22900
C1878       C  0.41675025  0.95091601  0.93486333     0.20000
F1879       F  0.41340034  0.94523237  0.96074690    -0.12800
F1880       F  0.38226942  0.92091881  0.92505272    -0.15200
F1881       F  0.45774672  0.99109364  0.89096575    -0.15200
F1882       F  0.42715071  0.96566300  0.85515052    -0.12800
C1883       C  0.32903271  0.96896193  0.81442387     0.25200
C1884       C  0.33270090  0.94146028  0.81620344    -0.22900
C1885       C  0.31457357  0.92525607  0.80245271     0.20100
C1886       C  0.29247786  0.93579740  0.78971459     0.25100
C1887       C  0.28766619  0.96296416  0.79016772    -0.22900
C1888       C  0.30685281  0.97942621  0.80169296     0.20000
F1889       F  0.30394502  0.00593596  0.80137932    -0.12800
F1890       F  0.34573553  0.98630324  0.82578599    -0.15200
F1891       F  0.27506551  0.91905156  0.77821974    -0.15200
F1892       F  0.31701918  0.89870731  0.80312785    -0.12800
C1893       C  0.18036478  0.71485566  0.03097513     0.25200
C1894       C  0.20200267  0.72664055  0.04369497    -0.22900
C1895       C  0.20989171  0.71702335  0.06834213     0.20100
C1896       C  0.19650422  0.69609685  0.08009008     0.25100
C1897       C  0.17554350  0.68313316  0.06689191    -0.22900
C1898       C  0.16708479  0.69376187  0.04253036     0.20000
F1899       F  0.14472190  0.68515193  0.03053762    -0.12800
F1900       F  0.17155944  0.72407592  0.00746413    -0.15200
F1901       F  0.20281321  0.69036593  0.10537611    -0.15200
F1902       F  0.22946218  0.72910909  0.08206889    -0.12800
C1903       C  0.34978435  0.81978364  0.10224991     0.25200
C1904       C  0.36634170  0.84118281  0.09582027    -0.22900
C1905       C  0.36252321  0.85385745  0.07152420     0.20100
C1906       C  0.34218659  0.84597194  0.05455203     0.25100
C1907       C  0.32546615  0.82486131  0.06116775    -0.22900
C1908       C  0.32982576  0.81153039  0.08496019     0.20000
F1909       F  0.31398608  0.79124499  0.09209626    -0.12800
F1910       F  0.35211330  0.80741338  0.12579101    -0.15200
F1911       F  0.33913105  0.85879554  0.03132001    -0.15200
F1912       F  0.37885293  0.87349933  0.06374868    -0.12800
C1913       C  0.12878151  0.83586638  0.92097477     0.25200
C1914       C  0.13372612  0.83936277  0.89415378    -0.22900
C1915       C  0.15817303  0.83158920  0.88373800     0.20100
C1916       C  0.17801849  0.82171056  0.90031035     0.25100
C1917       C  0.17355162  0.81923685  0.92764001    -0.22900
C1918       C  0.14840739  0.82605000  0.93759745     0.20000
F1919       F  0.14259912  0.82336850  0.96352181    -0.12800
F1920       F  0.10453360  0.84117544  0.93099750    -0.15200
F1921       F  0.20150030  0.81464723  0.88952932    -0.15200
F1922       F  0.16279668  0.83358973  0.85750787    -0.12800
C1923       C  0.30343971  0.88940901  0.93292041     0.25200
C1924       C  0.30500794  0.86199464  0.93557247    -0.22900
C1925       C  0.32342762  0.84799085  0.92009725     0.20100
C1926       C  0.33866918  0.86092480  0.90127201     0.25100
C1927       C  0.33570893  0.88795788  0.89750152    -0.22900
C1928       C  0.31855227  0.90225433  0.91387119     0.20000
F1929       F  0.31604063  0.92863865  0.91097814    -0.12800
F1930       F  0.28631549  0.90361504  0.94772267    -0.15200
F1931       F  0.35513194  0.84678745  0.88565060    -0.15200
F1932       F  0.32635725  0.82161809  0.92278075    -0.12800
C1933       C  0.18166545  0.84684074  0.07781311     0.25200
C1934       C  0.19429190  0.86231017  0.05854736    -0.22900
C1935       C  0.19247217  0.88979743  0.06028344     0.20100
C1936       C  0.17764461  0.90143400  0.08047814     0.25100
C1937       C  0.16476753  0.88577907  0.09937866    -0.22900
C1938       C  0.16744992  0.85850826  0.09816626     0.20000
F1939       F  0.15803604  0.84317433  0.11776321    -0.12800
F1940       F  0.18420876  0.82029138  0.07780013    -0.15200
F1941       F  0.17622800  0.92801904  0.08192957    -0.15200
F1942       F  0.20483690  0.90533514  0.04244687    -0.12800
C1943       C  0.20222423  0.94132664  0.21367891     0.25200
C1944       C  0.21389317  0.96430221  0.20384961    -0.22900
C1945       C  0.20264404  0.97625544  0.18154129     0.20100
C1946       C  0.18078601  0.96508947  0.16892434     0.25100
C1947       C  0.16893571  0.94180218  0.17850476    -0.22900
C1948       C  0.18059312  0.92988827  0.20093475     0.20000
F1949       F  0.17307839  0.90582877  0.20946144    -0.12800
F1950       F  0.21296341  0.92861728  0.23460653    -0.15200
F1951       F  0.17272812  0.97613901  0.14597854    -0.15200
F1952       F  0.21325773  0.99848122  0.17126952    -0.12800
C1953       C  0.31248801  0.09136526  0.12685048     0.25200
C1954       C  0.33250402  0.10976461  0.13223708    -0.22900
C1955       C  0.34263411  0.11150967  0.15794591     0.20100
C1956       C  0.33253007  0.09553025  0.17802270     0.25100
C1957       C  0.31259264  0.07699523  0.17257270    -0.22900
C1958       C  0.30286147  0.07494344  0.14672071     0.20000
F1959       F  0.28376018  0.05720111  0.14072676    -0.12800
F1960       F  0.30263491  0.08887727  0.10211359    -0.15200
F1961       F  0.34290253  0.09755518  0.20260324    -0.15200
F1962       F  0.36202355  0.12895107  0.16377501    -0.12800
C1963       C  0.30904084  0.94363762  0.34487894     0.25200
C1964       C  0.31965687  0.94118013  0.31946800    -0.22900
C1965       C  0.33928438  0.92216294  0.31490218     0.20100
C1966       C  0.34787185  0.90568174  0.33525041     0.25100
C1967       C  0.33785102  0.90855558  0.36082619    -0.22900
C1968       C  0.31822649  0.92763242  0.36542778     0.20000
F1969       F  0.30809814  0.93089637  0.38992652    -0.12800
F1970       F  0.29046464  0.96216639  0.35001482    -0.15200
F1971       F  0.36479209  0.88591553  0.32952949    -0.15200
F1972       F  0.34959553  0.91900807  0.29045616    -0.12800
C1973       C  0.33863966  0.93036860  0.17215067     0.25200
C1974       C  0.35318022  0.94782649  0.18835845    -0.22900
C1975       C  0.38076688  0.94468915  0.19001128     0.20100
C1976       C  0.39333183  0.92430174  0.17646036     0.25100
C1977       C  0.37867620  0.90668379  0.16092660    -0.22900
C1978       C  0.35134701  0.91008562  0.15851715     0.20000
F1979       F  0.33677618  0.89296849  0.14401939    -0.12800
F1980       F  0.31192033  0.93211152  0.17029357    -0.15200
F1981       F  0.41995126  0.92163606  0.17857076    -0.15200
F1982       F  0.39566568  0.96127995  0.20475975    -0.12800
C1983       C  0.34077823  0.08493641  0.32072881     0.25200
C1984       C  0.35499945  0.06794420  0.30381332    -0.22900
C1985       C  0.38278763  0.06885255  0.30432083     0.20100
C1986       C  0.39585079  0.08761387  0.31978040     0.25100
C1987       C  0.38143283  0.10547226  0.33527273    -0.22900
C1988       C  0.35392140  0.10346377  0.33627558     0.20000
F1989       F  0.33964614  0.12056320  0.35103308    -0.12800
F1990       F  0.31397745  0.08414767  0.32182857    -0.15200
F1991       F  0.42264259  0.08891207  0.31907448    -0.15200
F1992       F  0.39731138  0.05258947  0.28890027    -0.12800
C1993       C  0.52726215  0.81973146  0.70377915     0.25200
C1994       C  0.54277360  0.80158302  0.71793290    -0.22900
C1995       C  0.56889745  0.79715248  0.70969510     0.20100
C1996       C  0.57919218  0.81047572  0.68802442     0.25100
C1997       C  0.56350243  0.82816072  0.67317544    -0.22900
C1998       C  0.53752668  0.83308249  0.68209825     0.20000
F1999       F  0.52240560  0.85238186  0.67160908    -0.12800
F2000       F  0.50233192  0.82575996  0.71157017    -0.15200
F2001       F  0.60533679  0.80737892  0.68293200    -0.15200
F2002       F  0.58512184  0.78071790  0.72320871    -0.12800
C2003       C  0.41082042  0.83115517  0.80704060     0.25200
C2004       C  0.43465006  0.82726933  0.82078311    -0.22900
C2005       C  0.44112738  0.84451338  0.84143701     0.20100
C2006       C  0.42445093  0.86543332  0.84794954     0.25100
C2007       C  0.40039297  0.86926966  0.83449238    -0.22900
C2008       C  0.39371466  0.85171053  0.81401161     0.20000
F2009       F  0.37029060  0.85389139  0.80113932    -0.12800
F2010       F  0.40366766  0.81455914  0.78736433    -0.15200
F2011       F  0.43256013  0.88252144  0.86679167    -0.15200
F2012       F  0.46421024  0.84171372  0.85482062    -0.12800
C2013       C  0.55902228  0.82011948  0.87915982     0.25200
C2014       C  0.56535963  0.80825382  0.85489404    -0.22900
C2015       C  0.58964345  0.81483889  0.84276012     0.20100
C2016       C  0.60718582  0.83204850  0.85477266     0.25100
C2017       C  0.60090364  0.84365683  0.87880630    -0.22900
C2018       C  0.57673970  0.83774842  0.89099514     0.20000
F2019       F  0.57103859  0.84791919  0.91502505    -0.12800
F2020       F  0.53610982  0.81431121  0.89172144    -0.15200
F2021       F  0.63125245  0.83596803  0.84371146    -0.15200
F2022       F  0.59722745  0.80390823  0.81959774    -0.12800
C2023       C  0.40504499  0.34835340  0.64470080     0.25200
C2024       C  0.40012762  0.34384100  0.61796186    -0.22900
C2025       C  0.41598612  0.32571737  0.60421927     0.20100
C2026       C  0.43525172  0.31101600  0.61742530     0.25100
C2027       C  0.43886232  0.31406642  0.64466833    -0.22900
C2028       C  0.42417362  0.33356057  0.65798445     0.20000
F2029       F  0.42795366  0.33797948  0.68407270    -0.12800
F2030       F  0.39027571  0.36595596  0.65833389    -0.15200
F2031       F  0.44926819  0.29280748  0.60382008    -0.15200
F2032       F  0.41242261  0.32187652  0.57801092    -0.12800
C2033       C  0.38358710  0.43010418  0.54407309     0.25200
C2034       C  0.39166440  0.41089409  0.56223314    -0.22900
C2035       C  0.41864103  0.40880103  0.56860051     0.20100
C2036       C  0.43724099  0.42531221  0.55679288     0.25100
C2037       C  0.42925993  0.44454092  0.53854145    -0.22900
C2038       C  0.40216558  0.44686073  0.53243683     0.20000
F2039       F  0.39364789  0.46507936  0.51486726    -0.12800
F2040       F  0.35761735  0.43301769  0.53798680    -0.15200
F2041       F  0.46304722  0.42281640  0.56372764    -0.15200
F2042       F  0.42721123  0.39028786  0.58581520    -0.12800
C2043       C  0.56634583  0.40020067  0.42903939     0.25200
C2044       C  0.55879122  0.39914965  0.40248433    -0.22900
C2045       C  0.53984398  0.41701300  0.39299524     0.20100
C2046       C  0.52891525  0.43590902  0.40977004     0.25100
C2047       C  0.53623882  0.43677393  0.43647861    -0.22900
C2048       C  0.55495866  0.41865767  0.44598034     0.20000
F2049       F  0.56299315  0.41947887  0.47147069    -0.12800
F2050       F  0.58460546  0.38316580  0.43863337    -0.15200
F2051       F  0.51102678  0.45322842  0.39995407    -0.15200
F2052       F  0.53254247  0.41669456  0.36727343    -0.12800
C2053       C  0.42646147  0.64757218  0.34604086     0.25200
C2054       C  0.40223561  0.64345754  0.33296409    -0.22900
C2055       C  0.39594034  0.65985272  0.31139827     0.20100
C2056       C  0.41337446  0.67967056  0.30320925     0.25100
C2057       C  0.43713520  0.68418381  0.31683284    -0.22900
C2058       C  0.44344877  0.66786931  0.33833565     0.20000
F2059       F  0.46655380  0.67109470  0.35159261    -0.12800
F2060       F  0.43434658  0.63142750  0.36578819    -0.15200
F2061       F  0.40648850  0.69510343  0.28253375    -0.15200
F2062       F  0.37247245  0.65741476  0.29866855    -0.12800
C2063       C  0.42407411  0.55430052  0.38306992     0.25200
C2064       C  0.40426446  0.57197468  0.39088680    -0.22900
C2065       C  0.40096952  0.57738098  0.41780092     0.20100
C2066       C  0.41697927  0.56513429  0.43660017     0.25100
C2067       C  0.43691987  0.54747063  0.42885075    -0.22900
C2068       C  0.44040530  0.54232197  0.40183673     0.20000
F2069       F  0.45933433  0.52533739  0.39357025    -0.12800
F2070       F  0.42788962  0.54894874  0.35718743    -0.15200
F2071       F  0.41329177  0.57105435  0.46238891    -0.15200
F2072       F  0.38175267  0.59402125  0.42606051    -0.12800
C2073       C  0.42996345  0.61323080  0.57355696     0.25200
C2074       C  0.44032431  0.61736808  0.59883425    -0.22900
C2075       C  0.46310361  0.60342309  0.60664502     0.20100
C2076       C  0.47510324  0.58549169  0.58955347     0.25100
C2077       C  0.46443340  0.58098217  0.56442633    -0.22900
C2078       C  0.44186633  0.59520233  0.55651848     0.20000
F2079       F  0.43152028  0.59193561  0.53206353    -0.12800
F2080       F  0.40866608  0.62708878  0.56508793    -0.15200
F2081       F  0.49642769  0.57167640  0.59804296    -0.15200
F2082       F  0.47319895  0.60638189  0.63124198    -0.12800
C2083       C  0.47523531  0.69547509  0.70171393     0.25200
C2084       C  0.45939934  0.71255643  0.71645203    -0.22900
C2085       C  0.43369541  0.71806356  0.70788289     0.20100
C2086       C  0.42347423  0.70570299  0.68559901     0.25100
C2087       C  0.43900000  0.68799734  0.67064459    -0.22900
C2088       C  0.46523377  0.68313048  0.67928301     0.20000
F2089       F  0.48091896  0.66490893  0.66781242    -0.12800
F2090       F  0.50038209  0.69011620  0.70943873    -0.15200
F2091       F  0.39745047  0.70934194  0.68019134    -0.15200
F2092       F  0.41766078  0.73390551  0.72225633    -0.12800
C2093       C  0.60621316  0.35925370  0.68959633     0.25200
C2094       C  0.60057831  0.37499820  0.66734982    -0.22900
C2095       C  0.57702773  0.37006190  0.65334795     0.20100
C2096       C  0.56042337  0.34928068  0.66046236     0.25100
C2097       C  0.56623237  0.33345928  0.68245529    -0.22900
C2098       C  0.58897199  0.33912530  0.69731575     0.20000
F2099       F  0.59514474  0.32450429  0.71879341    -0.12800
F2100       F  0.62892777  0.36247619  0.70345281    -0.15200
F2101       F  0.53817500  0.34508883  0.64607619    -0.15200
F2102       F  0.56939887  0.38576998  0.63315902    -0.12800
C2103       C  0.56974650  0.48114673  0.59700982     0.25200
C2104       C  0.56683898  0.47065814  0.57158961    -0.22900
C2105       C  0.58149201  0.44822320  0.56472582     0.20100
C2106       C  0.59876143  0.43656519  0.58280791     0.25100
C2107       C  0.60110657  0.44644639  0.60862364    -0.22900
C2108       C  0.58636688  0.46896569  0.61546701     0.20000
F2109       F  0.58730425  0.47881352  0.64026201    -0.12800
F2110       F  0.55570187  0.50263919  0.60434230    -0.15200
F2111       F  0.61388250  0.41617442  0.57453711    -0.15200
F2112       F  0.57969536  0.43795466  0.54012145    -0.12800
C2113       C  0.68705154  0.42856853  0.69952332     0.25200
C2114       C  0.67420875  0.44315437  0.67941306    -0.22900
C2115       C  0.68594732  0.46719332  0.67174531     0.20100
C2116       C  0.70848545  0.47671323  0.68442534     0.25100
C2117       C  0.72078370  0.46221881  0.70451078    -0.22900
C2118       C  0.70960318  0.43824915  0.71220518     0.20000
F2119       F  0.72152234  0.42320106  0.73082067    -0.12800
F2120       F  0.67932733  0.40380194  0.70560727    -0.15200
F2121       F  0.71865534  0.50006223  0.67644642    -0.15200
F2122       F  0.67725453  0.48081255  0.65052995    -0.12800
C2123       C  0.57992134  0.67733300  0.38881449     0.25200
C2124       C  0.60376872  0.66995972  0.37684652    -0.22900
C2125       C  0.60952045  0.67910029  0.35155692     0.20100
C2126       C  0.59183031  0.69553017  0.33833758     0.25100
C2127       C  0.56794113  0.70361638  0.35037144    -0.22900
C2128       C  0.56199906  0.69375641  0.37563542     0.20000
F2129       F  0.53924292  0.70051256  0.38799701    -0.12800
F2130       F  0.57466074  0.66981334  0.41387920    -0.15200
F2131       F  0.59872954  0.70409300  0.31400678    -0.15200
F2132       F  0.63309848  0.67334211  0.34021193    -0.12800
C2133       C  0.59868155  0.57548928  0.47504808     0.25200
C2134       C  0.57295810  0.57292852  0.46494416    -0.22900
C2135       C  0.56609453  0.58680463  0.44205051     0.20100
C2136       C  0.58444178  0.60277395  0.42933874     0.25100
C2137       C  0.61051146  0.60504739  0.43886008    -0.22900
C2138       C  0.61742370  0.59105999  0.46193432     0.20000
F2139       F  0.64253425  0.59155120  0.47134915    -0.12800
F2140       F  0.60602322  0.56204056  0.49693189    -0.15200
F2141       F  0.57610880  0.61651022  0.40805549    -0.15200
F2142       F  0.54120576  0.58529027  0.43210342    -0.12800
C2143       C  0.19880087  0.48108473  0.81172830     0.25200
C2144       C  0.21137015  0.46792081  0.79086584    -0.22900
C2145       C  0.20151121  0.44322293  0.78325045     0.20100
C2146       C  0.18026697  0.43167574  0.79657864     0.25100
C2147       C  0.16733739  0.44484285  0.81749837    -0.22900
C2148       C  0.17770711  0.46954488  0.82518028     0.20000
F2149       F  0.16922851  0.48187179  0.84726233    -0.12800
F2150       F  0.20794209  0.50458702  0.82049176    -0.15200
F2151       F  0.17407212  0.40659602  0.79010920    -0.15200
F2152       F  0.21303363  0.42953488  0.76341876    -0.12800
C2153       C  0.33197886  0.45074385  0.65305941     0.25200
C2154       C  0.31364392  0.44190803  0.67200593    -0.22900
C2155       C  0.30540183  0.41555112  0.67125971     0.20100
C2156       C  0.31512855  0.39849863  0.65197075     0.25100
C2157       C  0.33356062  0.40733173  0.63323123    -0.22900
C2158       C  0.34189543  0.43357627  0.63396519     0.20000
F2159       F  0.35895144  0.44288637  0.61561638    -0.12800
F2160       F  0.34070610  0.47595459  0.65319578    -0.15200
F2161       F  0.30665602  0.37320692  0.65173775    -0.15200
F2162       F  0.28749374  0.40636858  0.68885489    -0.12800
C2163       C  0.37229402  0.56397010  0.67191506     0.25200
C2164       C  0.35725224  0.56960247  0.69442580    -0.22900
C2165       C  0.35325780  0.59578895  0.70186117     0.20100
C2166       C  0.36459626  0.61614315  0.68740099     0.25100
C2167       C  0.38028069  0.61067755  0.66520983    -0.22900
C2168       C  0.38388642  0.58440787  0.65742717     0.20000
F2169       F  0.39930327  0.57848984  0.63641976    -0.12800
F2170       F  0.37564632  0.53874147  0.66398128    -0.15200
F2171       F  0.36005701  0.64131916  0.69496701    -0.15200
F2172       F  0.33787543  0.60164861  0.72293068    -0.12800
C2173       C  0.31652813  0.36433297  0.10825243     0.25200
C2174       C  0.33436221  0.38392639  0.10064041    -0.22900
C2175       C  0.33677905  0.39035217  0.07387283     0.20100
C2176       C  0.32080747  0.37782715  0.05500305     0.25100
C2177       C  0.30243271  0.35855082  0.06274189    -0.22900
C2178       C  0.30084149  0.35169638  0.08958912     0.20000
F2179       F  0.28335868  0.33332741  0.09805044    -0.12800
F2180       F  0.31383572  0.35788828  0.13404239    -0.15200
F2181       F  0.32344641  0.38437738  0.02926085    -0.15200
F2182       F  0.35373052  0.40950566  0.06618743    -0.12800
C2183       C  0.44423954  0.44962939  0.08643122     0.25200
C2184       C  0.43438475  0.46903759  0.06922688    -0.22900
C2185       C  0.40735874  0.47538791  0.07014587     0.20100
C2186       C  0.39071521  0.46325478  0.08840392     0.25100
C2187       C  0.40060328  0.44412568  0.10575365    -0.22900
C2188       C  0.42737553  0.43704784  0.10433049     0.20000
F2189       F  0.43727273  0.41831059  0.12059127    -0.12800
F2190       F  0.47002463  0.44231765  0.08541094    -0.15200
F2191       F  0.36471405  0.46982953  0.08880174    -0.15200
F2192       F  0.39710745  0.49373137  0.05365490    -0.12800
C2193       C  0.57963392  0.63198204  0.82485563     0.25200
C2194       C  0.60575473  0.63803259  0.83172110    -0.22900
C2195       C  0.61511739  0.66363268  0.82778725     0.20100
C2196       C  0.59820040  0.68331752  0.81829599     0.25100
C2197       C  0.57155307  0.67761929  0.81209087    -0.22900
C2198       C  0.56266626  0.65148560  0.81520733     0.20000
F2199       F  0.53753460  0.64460329  0.80886970    -0.12800
F2200       F  0.57065193  0.60697017  0.82709685    -0.15200
F2201       F  0.60794113  0.70799649  0.81559594    -0.15200
F2202       F  0.64074847  0.66955132  0.83299816    -0.12800
C2203       C  0.60246077  0.54266308  0.90018218     0.25200
C2204       C  0.59748029  0.56698304  0.88789897    -0.22900
C2205       C  0.57380915  0.58026554  0.89386345     0.20100
C2206       C  0.55592917  0.56981028  0.91209117     0.25100
C2207       C  0.56115695  0.54568162  0.92459208    -0.22900
C2208       C  0.58440162  0.53203296  0.91802403     0.20000
F2209       F  0.59038452  0.50886789  0.92983126    -0.12800
F2210       F  0.62552129  0.52967693  0.89610740    -0.15200
F2211       F  0.53332604  0.58321747  0.91725255    -0.15200
F2212       F  0.56768819  0.60329175  0.88191453    -0.12800
C2213       C  0.71382681  0.57294307  0.79315184     0.25200
C2214       C  0.71888697  0.54583986  0.79353878    -0.22900
C2215       C  0.70135714  0.52940348  0.80743783     0.20100
C2216       C  0.67988302  0.53989415  0.82130257     0.25100
C2217       C  0.67496755  0.56726828  0.82127673    -0.22900
C2218       C  0.69249812  0.58343667  0.80689134     0.20000
F2219       F  0.69000931  0.60998058  0.80734809    -0.12800
F2220       F  0.73024075  0.58977857  0.78047333    -0.15200
F2221       F  0.66549112  0.52300883  0.83600061    -0.15200
F2222       F  0.70530746  0.50303868  0.80839706    -0.12800
C2223       C  0.39768370  0.67621950  0.85126367     0.25200
C2224       C  0.39880060  0.67074768  0.87821282    -0.22900
C2225       C  0.42043366  0.67950406  0.89316639     0.20100
C2226       C  0.44089618  0.69358522  0.88123681     0.25100
C2227       C  0.44004287  0.69878007  0.85412152    -0.22900
C2228       C  0.41828168  0.68984962  0.83920614     0.20000
F2229       F  0.41633583  0.69540589  0.81313208    -0.12800
F2230       F  0.37605216  0.66956652  0.83690133    -0.15200
F2231       F  0.46157622  0.70191587  0.89608669    -0.15200
F2232       F  0.42133181  0.67493979  0.91946230    -0.12800
C2233       C  0.34892205  0.60474593  0.84093560     0.25200
C2234       C  0.33268620  0.60844327  0.86311821    -0.22900
C2235       C  0.30784964  0.59569710  0.86356263     0.20100
C2236       C  0.29945636  0.58015135  0.84230544     0.25100
C2237       C  0.31592788  0.57632700  0.82040879    -0.22900
C2238       C  0.34073641  0.58884749  0.82002644     0.20000
F2239       F  0.35713129  0.58603800  0.79908383    -0.12800
F2240       F  0.37262467  0.61693101  0.83888129    -0.15200
F2241       F  0.27567260  0.56791089  0.84371012    -0.15200
F2242       F  0.29198394  0.59731671  0.88499801    -0.12800
C2243       C  0.40501944  0.61672538  0.95863079     0.25200
C2244       C  0.38968255  0.60757670  0.93732324    -0.22900
C2245       C  0.39299748  0.58170489  0.92851392     0.20100
C2246       C  0.41108512  0.56509213  0.94090990     0.25100
C2247       C  0.42649918  0.57419672  0.96207192    -0.22900
C2248       C  0.42341959  0.60016616  0.97081699     0.20000
F2249       F  0.43791267  0.60934576  0.99136883    -0.12800
F2250       F  0.40272654  0.64188054  0.96719572    -0.15200
F2251       F  0.41416300  0.54026392  0.93167561    -0.15200
F2252       F  0.37842273  0.57236584  0.90810791    -0.12800
C2253       C  0.31230052  0.67950273  0.95982345     0.25200
C2254       C  0.31772244  0.67854599  0.93254391    -0.22900
C2255       C  0.30633554  0.69808447  0.91636574     0.20100
C2256       C  0.29352197  0.71969576  0.92727003     0.25100
C2257       C  0.29099174  0.72206820  0.95470177    -0.22900
C2258       C  0.29960575  0.70126214  0.97073411     0.20000
F2259       F  0.29571893  0.70181709  0.99716212    -0.12800
F2260       F  0.31826747  0.65951257  0.97630218    -0.15200
F2261       F  0.28481342  0.73888317  0.91085739    -0.15200
F2262       F  0.30907630  0.69710785  0.88979251    -0.12800
C2263       C  0.36713139  0.34323492  0.92443511     0.25200
C2264       C  0.36323141  0.34370415  0.89711149    -0.22900
C2265       C  0.33952929  0.33374874  0.88659113     0.20100
C2266       C  0.31962599  0.32434587  0.90329160     0.25100
C2267       C  0.32316659  0.32496396  0.93069135    -0.22900
C2268       C  0.34702001  0.33451063  0.94113086     0.20000
F2269       F  0.35094176  0.33499641  0.96756119    -0.12800
F2270       F  0.39081650  0.35004696  0.93489218    -0.15200
F2271       F  0.29663722  0.31540097  0.89280264    -0.15200
F2272       F  0.33569610  0.33321867  0.86015049    -0.12800
C2273       C  0.39237212  0.42790099  0.82006369     0.25200
C2274       C  0.37807710  0.40881269  0.83400135    -0.22900
C2275       C  0.35046975  0.40941066  0.83363038     0.20100
C2276       C  0.33718427  0.42796244  0.81827603     0.25100
C2277       C  0.35139748  0.44643666  0.80307855    -0.22900
C2278       C  0.37916878  0.44675775  0.80491897     0.20000
F2279       F  0.39364517  0.46446662  0.79115432    -0.12800
F2280       F  0.41920244  0.42777216  0.82058057    -0.15200
F2281       F  0.31035355  0.42744940  0.81798938    -0.15200
F2282       F  0.33637619  0.39107651  0.84697277    -0.12800
C2283       C  0.42390057  0.40884371  0.92335704     0.25200
C2284       C  0.43649894  0.40062593  0.90011515    -0.22900
C2285       C  0.46133374  0.41170031  0.89389617     0.20100
C2286       C  0.47331947  0.43003019  0.91073897     0.25100
C2287       C  0.46063239  0.43801748  0.93399836    -0.22900
C2288       C  0.43582289  0.42709389  0.94007846     0.20000
F2289       F  0.42301298  0.43382093  0.96255141    -0.12800
F2290       F  0.39999227  0.39921715  0.93033349    -0.15200
F2291       F  0.49683085  0.44073416  0.90368776    -0.15200
F2292       F  0.47353179  0.40588827  0.87085528    -0.12800
C2293       C  0.42511689  0.30624322  0.81871631     0.25200
C2294       C  0.43552367  0.33023520  0.82844326    -0.22900
C2295       C  0.45797772  0.34073845  0.81565776     0.20100
C2296       C  0.46971601  0.32774924  0.79452916     0.25100
C2297       C  0.45912280  0.30409427  0.78501296    -0.22900
C2298       C  0.43711565  0.29321632  0.79771348     0.20000
F2299       F  0.42656463  0.27015566  0.78933270    -0.12800
F2300       F  0.40209045  0.29602939  0.82754016    -0.15200
F2301       F  0.49051003  0.33936046  0.78232725    -0.15200
F2302       F  0.46753022  0.36478812  0.82217476    -0.12800
C2303       C  0.54529155  0.59735854  0.10669726     0.25200
C2304       C  0.56062762  0.61787975  0.09656058    -0.22900
C2305       C  0.56319455  0.62071972  0.06927043     0.20100
C2306       C  0.55070298  0.60295921  0.05220057     0.25100
C2307       C  0.53578934  0.58179221  0.06229898    -0.22900
C2308       C  0.53307319  0.57941427  0.08980597     0.20000
F2309       F  0.51849597  0.55975547  0.10047062    -0.12800
F2310       F  0.54261612  0.59440359  0.13311310    -0.15200
F2311       F  0.55393664  0.60604205  0.02587382    -0.15200
F2312       F  0.57782117  0.64066189  0.05920201    -0.12800
C2313       C  0.52817525  0.70335927  0.19501606     0.25200
C2314       C  0.54508355  0.71573816  0.21316055    -0.22900
C2315       C  0.57245329  0.71475087  0.20886734     0.20100
C2316       C  0.58268006  0.70055291  0.18769393     0.25100
C2317       C  0.56586337  0.68692898  0.17001427    -0.22900
C2318       C  0.53827202  0.68885700  0.17408062     0.20000
F2319       F  0.52047104  0.67535592  0.15956845    -0.12800
F2320       F  0.50151183  0.70440029  0.19792327    -0.15200
F2321       F  0.60937037  0.69861073  0.18565210    -0.15200
F2322       F  0.58956746  0.72619972  0.22598993    -0.12800
C2323       C  0.57854584  0.41047918  0.06535362     0.25200
C2324       C  0.60551222  0.41098398  0.05876900    -0.22900
C2325       C  0.61418091  0.42845718  0.03906091     0.20100
C2326       C  0.59619271  0.44529258  0.02648691     0.25100
C2327       C  0.56943097  0.44509523  0.03370299    -0.22900
C2328       C  0.56078369  0.42752113  0.05312678     0.20000
F2329       F  0.53485612  0.42653826  0.05992768    -0.12800
F2330       F  0.56908467  0.39289154  0.08302721    -0.15200
F2331       F  0.60505237  0.46246760  0.00808843    -0.15200
F2332       F  0.64014314  0.42976643  0.03251467    -0.12800
C2333       C  0.68755337  0.31843695  0.07973592     0.25200
C2334       C  0.67556609  0.33708747  0.06278945    -0.22900
C2335       C  0.68066049  0.33500879  0.03553356     0.20100
C2336       C  0.69546798  0.31407163  0.02568326     0.25100
C2337       C  0.70579608  0.29474436  0.04258705    -0.22900
C2338       C  0.70238040  0.29761831  0.06979923     0.20000
F2339       F  0.71221650  0.27957419  0.08687820    -0.12800
F2340       F  0.68373556  0.31956269  0.10617283    -0.15200
F2341       F  0.69953562  0.31271109  0.99930993    -0.15200
F2342       F  0.67130955  0.35248968  0.01782472    -0.12800
C2343       C  0.04192120  0.62254735  0.41913232     0.25200
C2344       C  0.06131169  0.61505675  0.40076772    -0.22900
C2345       C  0.06789904  0.58833855  0.39849953     0.20100
C2346       C  0.05547530  0.56952085  0.41426440     0.25100
C2347       C  0.03627770  0.57697582  0.43289077    -0.22900
C2348       C  0.02967677  0.60374281  0.43516715     0.20000
F2349       F  0.01101853  0.61170431  0.45259283    -0.12800
F2350       F  0.03507080  0.64817636  0.42183648    -0.15200
F2351       F  0.06272031  0.54398305  0.41161982    -0.15200
F2352       F  0.08583111  0.58020553  0.38042713    -0.12800
C2353       C  0.07838516  0.70107577  0.31135330     0.25200
C2354       C  0.06243635  0.68844098  0.33040123    -0.22900
C2355       C  0.03484045  0.69274359  0.32909232     0.20100
C2356       C  0.02365384  0.70618511  0.30776207     0.25100
C2357       C  0.03957822  0.71629920  0.28746698    -0.22900
C2358       C  0.06717003  0.71453566  0.29014164     0.20000
F2359       F  0.08349416  0.72463921  0.27154618    -0.12800
F2360       F  0.10513720  0.69894680  0.31232330    -0.15200
F2361       F  0.99699329  0.70916373  0.30702324    -0.15200
F2362       F  0.01818384  0.68438946  0.34808969    -0.12800
C2363       C  0.89974204  0.42182018  0.68166482     0.25200
C2364       C  0.88618907  0.40871893  0.66119324    -0.22900
C2365       C  0.86117318  0.41781451  0.65374296     0.20100
C2366       C  0.84892376  0.43792245  0.66779753     0.25100
C2367       C  0.86157378  0.44981200  0.68964469    -0.22900
C2368       C  0.88753044  0.44203869  0.69582361     0.20000
F2369       F  0.90100162  0.45353036  0.71587555    -0.12800
F2370       F  0.92488922  0.41501846  0.68808703    -0.15200
F2371       F  0.82412475  0.44493725  0.66033771    -0.15200
F2372       F  0.84777432  0.40645231  0.63364384    -0.12800
C2373       C  0.92774968  0.39803753  0.56928441     0.25200
C2374       C  0.93962324  0.39215859  0.59358832    -0.22900
C2375       C  0.96354090  0.40471834  0.60026311     0.20100
C2376       C  0.97499761  0.42313149  0.58323191     0.25100
C2377       C  0.96261206  0.42973975  0.55930381    -0.22900
C2378       C  0.93901607  0.41664758  0.55239060     0.20000
F2379       F  0.92680259  0.42174183  0.52913560    -0.12800
F2380       F  0.90522090  0.38563430  0.56174893    -0.15200
F2381       F  0.99752335  0.43546787  0.59085492    -0.15200
F2382       F  0.97515295  0.40032782  0.62395641    -0.12800
C2383       C  0.97005311  0.30071659  0.68939993     0.25200
C2384       C  0.95415419  0.29476726  0.71125771    -0.22900
C2385       C  0.92702115  0.30016669  0.71002736     0.20100
C2386       C  0.91657309  0.31376802  0.68862465     0.25100
C2387       C  0.93306099  0.32282331  0.66803999    -0.22900
C2388       C  0.95961136  0.31425109  0.66781678     0.20000
F2389       F  0.97571284  0.31830366  0.64700311    -0.12800
F2390       F  0.99588301  0.29348367  0.68892355    -0.15200
F2391       F  0.89039524  0.31972505  0.68894565    -0.15200
F2392       F  0.91077698  0.29385779  0.73030295    -0.12800
C2393       C  0.89057371  0.46156578  0.40711769     0.25200
C2394       C  0.90040821  0.44308832  0.38911356    -0.22900
C2395       C  0.92756449  0.43776192  0.38849647     0.20100
C2396       C  0.94476701  0.45078154  0.40566679     0.25100
C2397       C  0.93486559  0.46870181  0.42434218    -0.22900
C2398       C  0.90761261  0.47413722  0.42472464     0.20000
F2399       F  0.89745927  0.49168861  0.44209744    -0.12800
F2400       F  0.86428274  0.46680745  0.40818698    -0.15200
F2401       F  0.97095295  0.44503734  0.40470893    -0.15200
F2402       F  0.93745221  0.41994542  0.37131934    -0.12800
C2403       C  0.83808459  0.61407007  0.65627521     0.25200
C2404       C  0.83331132  0.60755030  0.62987069    -0.22900
C2405       C  0.81846406  0.58505434  0.62395557     0.20100
C2406       C  0.80894102  0.56893556  0.64417480     0.25100
C2407       C  0.81366522  0.57534297  0.67079976    -0.22900
C2408       C  0.82819116  0.59826679  0.67657966     0.20000
F2409       F  0.83361734  0.60496513  0.70187287    -0.12800
F2410       F  0.85205252  0.63599771  0.66240045    -0.15200
F2411       F  0.79493064  0.54714613  0.63765389    -0.15200
F2412       F  0.81350233  0.57852393  0.59851846    -0.12800
C2413       C  0.89092171  0.57828080  0.56610778     0.25200
C2414       C  0.89088137  0.60479782  0.55852674    -0.22900
C2415       C  0.90828671  0.61312246  0.53869884     0.20100
C2416       C  0.92590773  0.59539581  0.52709161     0.25100
C2417       C  0.92616141  0.56884016  0.53472699    -0.22900
C2418       C  0.90815135  0.56035322  0.55406495     0.20000
F2419       F  0.90776310  0.53487641  0.56190157    -0.12800
F2420       F  0.87399559  0.56966525  0.58490828    -0.15200
F2421       F  0.94252240  0.60415432  0.50807899    -0.15200
F2422       F  0.90871937  0.63865418  0.53104561    -0.12800
C2423       C  0.07929063  0.41799295  0.47269924     0.25200
C2424       C  0.07300773  0.44238433  0.46136527    -0.22900
C2425       C  0.08589829  0.44988912  0.43795894     0.20100
C2426       C  0.10421286  0.43323645  0.42589867     0.25100
C2427       C  0.10999953  0.40858542  0.43679488    -0.22900
C2428       C  0.09743350  0.40116319  0.46043386     0.20000
F2429       F  0.10169273  0.37706736  0.47104952    -0.12800
F2430       F  0.06691529  0.40983348  0.49491696    -0.15200
F2431       F  0.11656786  0.44146988  0.40370171    -0.15200
F2432       F  0.08092715  0.47358036  0.42674711    -0.12800
C2433       C  0.07704828  0.56678435  0.55896527     0.25200
C2434       C  0.06332242  0.54393459  0.56630262    -0.22900
C2435       C  0.06697261  0.53385207  0.59176175     0.20100
C2436       C  0.08372683  0.54662204  0.60968592     0.25100
C2437       C  0.09768022  0.56947806  0.60232558    -0.22900
C2438       C  0.09405711  0.57933879  0.57666202     0.20000
F2439       F  0.10745043  0.60075952  0.56817887    -0.12800
F2440       F  0.07454250  0.57666650  0.53426438    -0.15200
F2441       F  0.08551789  0.53705829  0.63454284    -0.15200
F2442       F  0.05355027  0.51217272  0.59964113    -0.12800
C2443       C  0.19146775  0.55641110  0.65725877     0.25200
C2444       C  0.17131315  0.57022451  0.67056993    -0.22900
C2445       C  0.17208746  0.57047799  0.69837555     0.20100
C2446       C  0.19429638  0.56116465  0.71188088     0.25100
C2447       C  0.21589892  0.55049900  0.69812974    -0.22900
C2448       C  0.21369176  0.54729662  0.67067950     0.20000
F2449       F  0.23334146  0.53602512  0.65643547    -0.12800
F2450       F  0.19042903  0.55307327  0.63074557    -0.15200
F2451       F  0.19438466  0.56242155  0.73856465    -0.15200
F2452       F  0.15120303  0.57840086  0.71296510    -0.12800
C2453       C  0.96845015  0.69176577  0.79441161     0.25200
C2454       C  0.95810451  0.71549224  0.78467215    -0.22900
C2455       C  0.93866037  0.72847156  0.79957024     0.20100
C2456       C  0.92796671  0.71686418  0.82212702     0.25100
C2457       C  0.93640455  0.69165618  0.83047957    -0.22900
C2458       C  0.95787768  0.68013240  0.81691692     0.20000
F2459       F  0.96726632  0.65619027  0.82408514    -0.12800
F2460       F  0.98834508  0.67913924  0.78173974    -0.15200
F2461       F  0.90848953  0.73026450  0.83437733    -0.15200
F2462       F  0.92889190  0.75205155  0.79174624    -0.12800
C2463       C  0.06888078  0.80416444  0.78434938     0.25200
C2464       C  0.04151775  0.80061609  0.78197578    -0.22900
C2465       C  0.02506821  0.80908725  0.80263077     0.20100
C2466       C  0.03558576  0.82224603  0.82445977     0.25100
C2467       C  0.06295620  0.82775215  0.82590524    -0.22900
C2468       C  0.07941782  0.81733513  0.80595967     0.20000
F2469       F  0.10597660  0.82120770  0.80660845    -0.12800
F2470       F  0.08556000  0.79607248  0.76508614    -0.15200
F2471       F  0.01850978  0.82933903  0.84361428    -0.15200
F2472       F  0.99860504  0.80466952  0.80180270    -0.12800
C2473       C  0.10011367  0.66626403  0.65117014     0.25200
C2474       C  0.09961253  0.64086665  0.66197563    -0.22900
C2475       C  0.08340327  0.63602686  0.68395305     0.20100
C2476       C  0.06787352  0.65607706  0.69472008     0.25100
C2477       C  0.06868642  0.68154124  0.68415362    -0.22900
C2478       C  0.08516308  0.68652281  0.66244048     0.20000
F2479       F  0.08608648  0.71083632  0.65152816    -0.12800
F2480       F  0.11538766  0.67166691  0.62997300    -0.15200
F2481       F  0.05226245  0.65069149  0.71573022    -0.15200
F2482       F  0.08223545  0.61167536  0.69474642    -0.12800
C2483       C  0.91272136  0.70403327  0.65066363     0.25200
C2484       C  0.93919942  0.69859207  0.64471649    -0.22900
C2485       C  0.94534097  0.67850750  0.62684866     0.20100
C2486       C  0.92503940  0.66428407  0.61459300     0.25100
C2487       C  0.89847756  0.67023186  0.62001457    -0.22900
C2488       C  0.89249107  0.69006320  0.63831359     0.20000
F2489       F  0.86697636  0.69607774  0.64398013    -0.12800
F2490       F  0.90649541  0.72322033  0.66815708    -0.15200
F2491       F  0.93126486  0.64563800  0.59655532    -0.15200
F2492       F  0.97092255  0.67286089  0.62120043    -0.12800
C2493       C  0.70442079  0.18410628  0.57700268     0.25200
C2494       C  0.67996113  0.17503483  0.56676215    -0.22900
C2495       C  0.66883873  0.18902776  0.54541059     0.20100
C2496       C  0.68164275  0.21063238  0.53450648     0.25100
C2497       C  0.70582704  0.21952529  0.54482569    -0.22900
C2498       C  0.71735030  0.20562041  0.56577861     0.20000
F2499       F  0.74040211  0.21384555  0.57675158    -0.12800
F2500       F  0.71506694  0.17420982  0.59935677    -0.15200
F2501       F  0.66969458  0.22332680  0.51422181    -0.15200
F2502       F  0.64428072  0.18327641  0.53628159    -0.12800
C2503       C  0.64499034  0.30977627  0.43719307     0.25200
C2504       C  0.67100623  0.31927994  0.43459173    -0.22900
C2505       C  0.67584950  0.33964690  0.41649509     0.20100
C2506       C  0.65527343  0.35004808  0.40117199     0.25100
C2507       C  0.62952342  0.33992569  0.40311565    -0.22900
C2508       C  0.62453840  0.31978089  0.42140495     0.20000
F2509       F  0.59972902  0.31005960  0.42429012    -0.12800
F2510       F  0.63941288  0.29047644  0.45474512    -0.15200
F2511       F  0.66071745  0.36961422  0.38391099    -0.15200
F2512       F  0.70041611  0.35007986  0.41417330    -0.12800
C2513       C  0.81626566  0.33649332  0.59146380     0.25200
C2514       C  0.82182141  0.32187931  0.56865427    -0.22900
C2515       C  0.84824033  0.31646018  0.56221342     0.20100
C2516       C  0.86881562  0.32613844  0.57795463     0.25100
C2517       C  0.86327820  0.34104080  0.60055872    -0.22900
C2518       C  0.83684403  0.34556334  0.60758162     0.20000
F2519       F  0.83092277  0.35790835  0.63046524    -0.12800
F2520       F  0.79085300  0.34156959  0.59832730    -0.15200
F2521       F  0.89423282  0.32104032  0.57113945    -0.15200
F2522       F  0.85412109  0.30262874  0.54015330    -0.12800
C2523       C  0.68018170  0.40001174  0.58325280     0.25200
C2524       C  0.66438371  0.38629572  0.60129230    -0.22900
C2525       C  0.66072379  0.35925635  0.59835395     0.20100
C2526       C  0.67374483  0.34574564  0.57826814     0.25100
C2527       C  0.69054773  0.35924735  0.56063740    -0.22900
C2528       C  0.69311691  0.38665385  0.56305180     0.20000
F2529       F  0.70826534  0.40057776  0.54602190    -0.12800
F2530       F  0.68320498  0.42642113  0.58536335    -0.15200
F2531       F  0.67076655  0.31928227  0.57693830    -0.15200
F2532       F  0.64566826  0.34572487  0.61579084    -0.12800
C2533       C  0.80127594  0.38790383  0.43868389     0.25200
C2534       C  0.80502642  0.36098526  0.44317484    -0.22900
C2535       C  0.82551517  0.34781365  0.42980832     0.20100
C2536       C  0.84045830  0.36076686  0.41067356     0.25100
C2537       C  0.83490734  0.38695818  0.40430846    -0.22900
C2538       C  0.81600564  0.40076785  0.41930473     0.20000
F2539       F  0.81112495  0.42654907  0.41452257    -0.12800
F2540       F  0.78210112  0.40130533  0.45165113    -0.15200
F2541       F  0.85903357  0.34714706  0.39714529    -0.15200
F2542       F  0.83051548  0.32207537  0.43469969    -0.12800
C2543       C  0.16862385  0.94677048  0.65366763     0.25200
C2544       C  0.18383600  0.93704973  0.67486329    -0.22900
C2545       C  0.18841313  0.90977979  0.67640487     0.20100
C2546       C  0.17886546  0.89289094  0.65678150     0.25100
C2547       C  0.16410363  0.90278204  0.63553947    -0.22900
C2548       C  0.15872684  0.92976304  0.63435403     0.20000
F2549       F  0.14472829  0.93983950  0.61390029    -0.12800
F2550       F  0.16301508  0.97276423  0.65169227    -0.15200
F2551       F  0.18401901  0.86678351  0.65850857    -0.15200
F2552       F  0.20266407  0.89945396  0.69655445    -0.12800
C2553       C  0.09260735  0.84521628  0.63996790     0.25200
C2554       C  0.09963546  0.83934168  0.61396098    -0.22900
C2555       C  0.08588188  0.81927201  0.60051469     0.20100
C2556       C  0.06677765  0.80419836  0.61350440     0.25100
C2557       C  0.06103041  0.80904185  0.64008814    -0.22900
C2558       C  0.07346964  0.83029336  0.65286286     0.20000
F2559       F  0.06749983  0.83632128  0.67819199    -0.12800
F2560       F  0.10537579  0.86435027  0.65355260    -0.15200
F2561       F  0.05502429  0.78402706  0.60051190    -0.15200
F2562       F  0.09119295  0.81398172  0.57487418    -0.12800
C2563       C  0.11907196  0.93198721  0.54819965     0.25200
C2564       C  0.11038407  0.91002888  0.56243917    -0.22900
C2565       C  0.08317336  0.90557495  0.56522220     0.20100
C2566       C  0.06485735  0.92245508  0.55358598     0.25100
C2567       C  0.07333809  0.94438516  0.53895727    -0.22900
C2568       C  0.10073500  0.94913989  0.53666789     0.20000
F2569       F  0.10987008  0.97015440  0.52301111    -0.12800
F2570       F  0.14529927  0.93707348  0.54587011    -0.15200
F2571       F  0.03874789  0.91740240  0.55703852    -0.15200
F2572       F  0.07419564  0.88437932  0.57868486    -0.12800
C2573       C  0.14740002  0.11178566  0.67604395     0.25200
C2574       C  0.12396992  0.10733785  0.66198414    -0.22900
C2575       C  0.11205776  0.08242207  0.66285701     0.20100
C2576       C  0.12326739  0.06228454  0.67810123     0.25100
C2577       C  0.14666356  0.06685042  0.69230123    -0.22900
C2578       C  0.15882084  0.09163593  0.69082814     0.20000
F2579       F  0.18143664  0.09652868  0.70440294    -0.12800
F2580       F  0.15886855  0.13588807  0.67589402    -0.15200
F2581       F  0.11155551  0.03832709  0.67872334    -0.15200
F2582       F  0.08910643  0.07795039  0.64973013    -0.12800
C2583       C  0.03937554  0.10529393  0.60402873     0.25200
C2584       C  0.06305313  0.11803738  0.59698656    -0.22900
C2585       C  0.07409317  0.11291463  0.57215168     0.20100
C2586       C  0.06226827  0.09480931  0.55510389     0.25100
C2587       C  0.03888790  0.08165368  0.56234296    -0.22900
C2588       C  0.02730330  0.08747478  0.58678369     0.20000
F2589       F  0.00498553  0.07493946  0.59459719    -0.12800
F2590       F  0.02853833  0.10904097  0.62814792    -0.15200
F2591       F  0.07363556  0.09033415  0.53133573    -0.15200
F2592       F  0.09618307  0.12571703  0.56412487    -0.12800
C2593       C  0.04801985  0.17264370  0.68657739     0.25200
C2594       C  0.06644316  0.18563520  0.67026200    -0.22900
C2595       C  0.07123286  0.21261049  0.67515783     0.20100
C2596       C  0.05972079  0.22519650  0.69676399     0.25100
C2597       C  0.04289664  0.21149246  0.71396940    -0.22900
C2598       C  0.03652984  0.18525605  0.70800916     0.20000
F2599       F  0.01959806  0.17127169  0.72324219    -0.12800
F2600       F  0.04208868  0.14691917  0.68262004    -0.15200
F2601       F  0.06566316  0.25084952  0.70101422    -0.15200
F2602       F  0.08728639  0.22732446  0.65990989    -0.12800
C2603       C  0.07111091  0.07019114  0.38716678     0.25200
C2604       C  0.09856304  0.06978850  0.39068287    -0.22900
C2605       C  0.10941059  0.05636560  0.41221702     0.20100
C2606       C  0.09299862  0.04374392  0.43031376     0.25100
C2607       C  0.06529165  0.04434969  0.42719067    -0.22900
C2608       C  0.05454715  0.05769897  0.40530896     0.20000
F2609       F  0.02799732  0.05935726  0.40180441    -0.12800
F2610       F  0.06035239  0.08241904  0.36599600    -0.15200
F2611       F  0.10432380  0.03084703  0.45081851    -0.15200
F2612       F  0.13600209  0.05560802  0.41577138    -0.12800
C2613       C  0.21172206  0.07793340  0.29428513     0.25200
C2614       C  0.21466482  0.05062183  0.29195555    -0.22900
C2615       C  0.19481446  0.03431415  0.30237999     0.20100
C2616       C  0.17340777  0.04488141  0.31619873     0.25100
C2617       C  0.17126214  0.07232766  0.32019586    -0.22900
C2618       C  0.19037799  0.08857605  0.30802474     0.20000
F2619       F  0.18936298  0.11507749  0.31087595    -0.12800
F2620       F  0.23021769  0.09453566  0.28445081    -0.15200
F2621       F  0.15565052  0.02761080  0.32587780    -0.15200
F2622       F  0.19614999  0.00782504  0.29954341    -0.12800
C2623       C  0.90730271  0.85102959  0.64304658     0.25200
C2624       C  0.90226264  0.87215567  0.66031035    -0.22900
C2625       C  0.91494151  0.87200507  0.68513638     0.20100
C2626       C  0.93067099  0.85078674  0.69299329     0.25100
C2627       C  0.93501362  0.82947825  0.67598256    -0.22900
C2628       C  0.92343754  0.83007192  0.65076959     0.20000
F2629       F  0.92725591  0.81002848  0.63355544    -0.12800
F2630       F  0.89640515  0.85000220  0.61872078    -0.15200
F2631       F  0.94242396  0.85162112  0.71701491    -0.15200
F2632       F  0.91309144  0.89286890  0.70164422    -0.12800
C2633       C  0.91789036  0.95221324  0.56214715     0.25200
C2634       C  0.93499128  0.97238616  0.57020741    -0.22900
C2635       C  0.93427126  0.98095388  0.59647430     0.20100
C2636       C  0.91751992  0.96865159  0.61467486     0.25100
C2637       C  0.90086632  0.94788435  0.60673624    -0.22900
C2638       C  0.90076776  0.94035999  0.58007046     0.20000
F2639       F  0.88364751  0.92193434  0.57102420    -0.12800
F2640       F  0.91745366  0.94422944  0.53664928    -0.15200
F2641       F  0.91836698  0.97640001  0.64021766    -0.15200
F2642       F  0.95066434  0.00036852  0.60478049    -0.12800
C2643       C  0.83179682  0.96611994  0.68906750     0.25200
C2644       C  0.83181763  0.93952064  0.68126239    -0.22900
C2645       C  0.81226151  0.92285028  0.69209692     0.20100
C2646       C  0.79099397  0.93314494  0.70617167     0.25100
C2647       C  0.78906786  0.96029207  0.71037676    -0.22900
C2648       C  0.81042552  0.97640726  0.70308004     0.20000
F2649       F  0.81061166  0.00231953  0.70939755    -0.12800
F2650       F  0.85233577  0.98234544  0.68398059    -0.15200
F2651       F  0.77151257  0.91665719  0.71414909    -0.15200
F2652       F  0.81273454  0.89658296  0.68744316    -0.12800
C2653       C  0.88655963  0.09104709  0.46041861     0.25200
C2654       C  0.89399968  0.10684149  0.43887341    -0.22900
C2655       C  0.92049245  0.10616592  0.43039816     0.20100
C2656       C  0.93876195  0.08946239  0.44246778     0.25100
C2657       C  0.93123811  0.07356763  0.46374574    -0.22900
C2658       C  0.90509675  0.07475140  0.47288786     0.20000
F2659       F  0.89723148  0.05929603  0.49316885    -0.12800
F2660       F  0.86116107  0.09073796  0.46894168    -0.15200
F2661       F  0.96410378  0.08924935  0.43369755    -0.15200
F2662       F  0.92912523  0.12228253  0.41098412    -0.12800
C2663       C  0.81147898  0.19914867  0.41815071     0.25200
C2664       C  0.82206124  0.17906917  0.43432466    -0.22900
C2665       C  0.81461536  0.17878284  0.46109496     0.20100
C2666       C  0.80014516  0.19963258  0.47176646     0.25100
C2667       C  0.79223972  0.22097994  0.45598896    -0.22900
C2668       C  0.79711981  0.21994195  0.42886414     0.20000
F2669       F  0.78923456  0.23972338  0.41276012    -0.12800
F2670       F  0.81622294  0.19937341  0.39184787    -0.15200
F2671       F  0.79376488  0.19880758  0.49769841    -0.15200
F2672       F  0.82035869  0.15836139  0.47714304    -0.12800
C2673       C  0.92861952  0.92695688  0.40254071     0.25200
C2674       C  0.93560170  0.90018777  0.40335212    -0.22900
C2675       C  0.95546420  0.89212521  0.42103179     0.20100
C2676       C  0.96827690  0.91043628  0.43722219     0.25100
C2677       C  0.96154868  0.93724637  0.43609877    -0.22900
C2678       C  0.94141755  0.94523125  0.41871721     0.20000
F2679       F  0.93359766  0.97072134  0.41779421    -0.12800
F2680       F  0.90988120  0.93575148  0.38555638    -0.15200
F2681       F  0.98756764  0.90193445  0.45375091    -0.15200
F2682       F  0.96216070  0.86639881  0.42308667    -0.12800
C2683       C  0.95914472  0.83005631  0.32455168     0.25200
C2684       C  0.93254721  0.82709134  0.33271615    -0.22900
C2685       C  0.91623176  0.80988909  0.31782448     0.20100
C2686       C  0.92598742  0.79657140  0.29584303     0.25100
C2687       C  0.95196243  0.80069067  0.28743998    -0.22900
C2688       C  0.96861466  0.81688895  0.30236658     0.20000
F2689       F  0.99414186  0.82057086  0.29503133    -0.12800
F2690       F  0.97586099  0.84717153  0.33630627    -0.15200
F2691       F  0.90933674  0.78124039  0.28155428    -0.15200
F2692       F  0.89002048  0.80760433  0.32297721    -0.12800
C2693       C  0.68357737  0.71163630  0.46873647     0.25200
C2694       C  0.70569115  0.72270319  0.45635440    -0.22900
C2695       C  0.71595952  0.71030214  0.43390166     0.20100
C2696       C  0.70363149  0.68809885  0.42328221     0.25100
C2697       C  0.68117765  0.67679694  0.43551730    -0.22900
C2698       C  0.67125014  0.68945266  0.45829667     0.20000
F2699       F  0.64815206  0.68191844  0.46949770    -0.12800
F2700       F  0.67318845  0.72273509  0.49070812    -0.15200
F2701       F  0.71255106  0.67956973  0.39966523    -0.15200
F2702       F  0.73693997  0.72071412  0.42095747    -0.12800
C2703       C  0.82927357  0.68940013  0.53575862     0.25200
C2704       C  0.82167954  0.67840958  0.56018523    -0.22900
C2705       C  0.80139677  0.69134698  0.57433047     0.20100
C2706       C  0.78824083  0.71306973  0.56384457     0.25100
C2707       C  0.79542926  0.72341083  0.53923549    -0.22900
C2708       C  0.81603337  0.71112690  0.52526880     0.20000
F2709       F  0.82455083  0.72090037  0.50191869    -0.12800
F2710       F  0.85094341  0.68077470  0.52269920    -0.15200
F2711       F  0.76901067  0.72450400  0.57850720    -0.15200
F2712       F  0.79538565  0.68445088  0.59938873    -0.12800
C2713       C  0.65423144  0.83954840  0.55967012     0.25200
C2714       C  0.67221843  0.82009242  0.56801269    -0.22900
C2715       C  0.67098499  0.81118327  0.59414800     0.20100
C2716       C  0.65189372  0.82114110  0.61140869     0.25100
C2717       C  0.63370584  0.84038573  0.60296984    -0.22900
C2718       C  0.63524916  0.84962684  0.57697800     0.20000
F2719       F  0.61787370  0.86785895  0.56799095    -0.12800
F2720       F  0.65539939  0.84933565  0.53485048    -0.15200
F2721       F  0.65147532  0.81219150  0.63656262    -0.15200
F2722       F  0.68796879  0.79246969  0.60290112    -0.12800
C2723       C  0.83827107  0.84985826  0.44236024     0.25200
C2724       C  0.81997226  0.83050661  0.43461341    -0.22900
C2725       C  0.82226241  0.81912557  0.40957909     0.20100
C2726       C  0.84253095  0.82685561  0.39258147     0.25100
C2727       C  0.86120465  0.84583958  0.40047899    -0.22900
C2728       C  0.85881884  0.85729860  0.42553830     0.20000
F2729       F  0.87695509  0.87493597  0.43423383    -0.12800
F2730       F  0.83681193  0.86093541  0.46662771    -0.15200
F2731       F  0.84348660  0.81618593  0.36812459    -0.15200
F2732       F  0.80435921  0.80107817  0.40125559    -0.12800
C2733       C  0.81710325  0.84756045  0.58159048     0.25200
C2734       C  0.80178938  0.86161508  0.56300899    -0.22900
C2735       C  0.80439451  0.88913967  0.56191232     0.20100
C2736       C  0.82107261  0.90221978  0.57960429     0.25100
C2737       C  0.83548036  0.88807556  0.59853110    -0.22900
C2738       C  0.83336955  0.86074559  0.59937845     0.20000
F2739       F  0.84538561  0.84689720  0.61879208    -0.12800
F2740       F  0.81593693  0.82097157  0.58319369    -0.15200
F2741       F  0.82227946  0.92884718  0.57909351    -0.15200
F2742       F  0.79003046  0.90354833  0.54456116    -0.12800
C2743       C  0.66740110  0.85277616  0.42801383     0.25200
C2744       C  0.68910247  0.86437946  0.44129745    -0.22900
C2745       C  0.69627694  0.89021953  0.43458073     0.20100
C2746       C  0.68284234  0.90365695  0.41467175     0.25100
C2747       C  0.66209569  0.89155639  0.40064056    -0.22900
C2748       C  0.65414511  0.86622902  0.40790131     0.20000
F2749       F  0.63435903  0.85391380  0.39470458    -0.12800
F2750       F  0.65925597  0.82807130  0.43388411    -0.15200
F2751       F  0.69020279  0.92869380  0.40916327    -0.15200
F2752       F  0.71664079  0.90252203  0.44688226    -0.12800
C2753       C  0.70220509  0.98244658  0.31588472     0.25200
C2754       C  0.71428007  0.96816030  0.29551707    -0.22900
C2755       C  0.70321945  0.94406677  0.28799341     0.20100
C2756       C  0.68125979  0.93393399  0.30114920     0.25100
C2757       C  0.66856463  0.94824110  0.32152003    -0.22900
C2758       C  0.67997640  0.97254826  0.32892597     0.20000
F2759       F  0.67120356  0.98604138  0.35017753    -0.12800
F2760       F  0.71231497  0.00586601  0.32376662    -0.15200
F2761       F  0.67420567  0.90892115  0.29526362    -0.15200
F2762       F  0.71487215  0.92917027  0.26912344    -0.12800
C2763       C  0.67935242  0.04530134  0.17261581     0.25200
C2764       C  0.66992255  0.07078782  0.17856871    -0.22900
C2765       C  0.68385859  0.08540568  0.19782848     0.20100
C2766       C  0.70558146  0.07478898  0.21104783     0.25100
C2767       C  0.71470530  0.04943426  0.20504468    -0.22900
C2768       C  0.70099390  0.03470163  0.18594803     0.20000
F2769       F  0.70936898  0.01038780  0.17879011    -0.12800
F2770       F  0.66951654  0.03109992  0.15228740    -0.15200
F2771       F  0.71829529  0.08999893  0.22899834    -0.15200
F2772       F  0.67798488  0.11097055  0.20254367    -0.12800
C2773       C  0.84140295  0.08354648  0.36549206     0.25200
C2774       C  0.83701936  0.11068942  0.36461977    -0.22900
C2775       C  0.82293088  0.12138139  0.34328477     0.20100
C2776       C  0.81298073  0.10511332  0.32330244     0.25100
C2777       C  0.81650129  0.07769094  0.32453845    -0.22900
C2778       C  0.83111846  0.06717705  0.34582767     0.20000
F2779       F  0.83583390  0.04098747  0.34754997    -0.12800
F2780       F  0.85493983  0.07273579  0.38588501    -0.15200
F2781       F  0.79948426  0.11621355  0.30306146    -0.15200
F2782       F  0.81899306  0.14770525  0.34172401    -0.12800
C2783       C  0.84442914  0.93327380  0.13712485     0.25200
C2784       C  0.83174435  0.90894581  0.13358736    -0.22900
C2785       C  0.81156674  0.90178397  0.15136469     0.20100
C2786       C  0.80429289  0.91856379  0.17204989     0.25100
C2787       C  0.81738567  0.94260995  0.17581803    -0.22900
C2788       C  0.83753671  0.94974338  0.15810410     0.20000
F2789       F  0.85015505  0.97313874  0.16063836    -0.12800
F2790       F  0.86297101  0.94165128  0.11979088    -0.15200
F2791       F  0.78509468  0.91082447  0.18897467    -0.15200
F2792       F  0.79941276  0.87811241  0.14933620    -0.12800
C2793       C  0.85349628  0.91563900  0.34159695     0.25200
C2794       C  0.87959987  0.90884234  0.33570338    -0.22900
C2795       C  0.89338893  0.92317321  0.31644375     0.20100
C2796       C  0.88091071  0.94334623  0.30253875     0.25100
C2797       C  0.85433785  0.94966373  0.30766845    -0.22900
C2798       C  0.84094416  0.93580994  0.32779957     0.20000
F2799       F  0.81531996  0.94103542  0.33372191    -0.12800
F2800       F  0.83962863  0.90186792  0.35980571    -0.15200
F2801       F  0.89488971  0.95649227  0.28397035    -0.15200
F2802       F  0.91908492  0.91766856  0.31110506    -0.12800
C2803       C  0.85463328  0.10284098  0.15931144     0.25200
C2804       C  0.88193615  0.10608455  0.16226652    -0.22900
C2805       C  0.89596325  0.08913922  0.17915719     0.20100
C2806       C  0.88261797  0.07056462  0.19440729     0.25100
C2807       C  0.85493638  0.06876891  0.19319068    -0.22900
C2808       C  0.84118972  0.08439298  0.17467496     0.20000
F2809       F  0.81457829  0.08230752  0.17186351    -0.12800
F2810       F  0.84072827  0.11871687  0.14288876    -0.15200
F2811       F  0.89666927  0.05549822  0.21145094    -0.15200
F2812       F  0.92261816  0.09120437  0.18151078    -0.12800
C2813       C  0.04055123  0.33841777  0.17966420     0.25200
C2814       C  0.06374334  0.32954728  0.16692153    -0.22900
C2815       C  0.07648979  0.30712762  0.17769048     0.20100
C2816       C  0.06585662  0.29368624  0.19923334     0.25100
C2817       C  0.04292242  0.30282382  0.21177401    -0.22900
C2818       C  0.03016856  0.32509148  0.20138115     0.20000
F2819       F  0.00789937  0.33468457  0.21273696    -0.12800
F2820       F  0.02883946  0.36133909  0.17267176    -0.15200
F2821       F  0.07928610  0.27272397  0.20894647    -0.15200
F2822       F  0.10063009  0.29925248  0.16928265    -0.12800
C2823       C  0.93190237  0.21214902  0.20999369     0.25200
C2824       C  0.95938448  0.21471216  0.21256586    -0.22900
C2825       C  0.97575141  0.20470346  0.19259364     0.20100
C2826       C  0.96506576  0.19061579  0.17150003     0.25100
C2827       C  0.93757564  0.18598243  0.17004230    -0.22900
C2828       C  0.92119221  0.19807093  0.18909630     0.20000
F2829       F  0.89450979  0.19508456  0.18828474    -0.12800
F2830       F  0.91522129  0.22212000  0.22837264    -0.15200
F2831       F  0.98208790  0.18166646  0.15310468    -0.15200
F2832       F  0.00231218  0.20843264  0.19345152    -0.12800
C2833       C  0.07854022  0.14916978  0.34848992     0.25200
C2834       C  0.10267631  0.14424659  0.33555483    -0.22900
C2835       C  0.10933628  0.16048044  0.31394273     0.20100
C2836       C  0.09203907  0.18025203  0.30511430     0.25100
C2837       C  0.06799138  0.18493992  0.31807401    -0.22900
C2838       C  0.06161688  0.16924739  0.33999839     0.20000
F2839       F  0.03846356  0.17284300  0.35298904    -0.12800
F2840       F  0.07059956  0.13418283  0.36901874    -0.15200
F2841       F  0.09932442  0.19546736  0.28444889    -0.15200
F2842       F  0.13305678  0.15799246  0.30179130    -0.12800
C2843       C  0.92049187  0.37705172  0.32388276     0.25200
C2844       C  0.89635747  0.36956999  0.33510304    -0.22900
C2845       C  0.88890394  0.34307501  0.33449322     0.20100
C2846       C  0.90574151  0.32413018  0.32353137     0.25100
C2847       C  0.93047152  0.33139352  0.31285654    -0.22900
C2848       C  0.93754883  0.35821671  0.31320404     0.20000
F2849       F  0.96079842  0.36644599  0.30279524    -0.12800
F2850       F  0.92721373  0.40280609  0.32254957    -0.15200
F2851       F  0.89780177  0.29867515  0.32361286    -0.15200
F2852       F  0.86493712  0.33563707  0.34382957    -0.12800
C2853       C  0.90557484  0.16879354  0.35297755     0.25200
C2854       C  0.90358581  0.17139907  0.38029460    -0.22900
C2855       C  0.92101323  0.18821160  0.39373667     0.20100
C2856       C  0.93920750  0.20345939  0.37987210     0.25100
C2857       C  0.94011738  0.20226695  0.35224219    -0.22900
C2858       C  0.92363597  0.18412340  0.33899779     0.20000
F2859       F  0.92445679  0.18163121  0.31240766    -0.12800
F2860       F  0.88880441  0.15275246  0.33965019    -0.15200
F2861       F  0.95480885  0.22042603  0.39343125    -0.15200
F2862       F  0.91970477  0.19054545  0.42031790    -0.12800
C2863       C  0.05738034  0.32048907  0.37784533     0.25200
C2864       C  0.05979771  0.31493477  0.35090149    -0.22900
C2865       C  0.08206896  0.32400838  0.33704209     0.20100
C2866       C  0.10176046  0.33810347  0.35001543     0.25100
C2867       C  0.09911920  0.34399416  0.37676693    -0.22900
C2868       C  0.07693000  0.33508183  0.39068762     0.20000
F2869       F  0.07470869  0.33981339  0.41687834    -0.12800
F2870       F  0.03611947  0.31190765  0.39163059    -0.15200
F2871       F  0.12413461  0.34460311  0.33685564    -0.15200
F2872       F  0.08545284  0.31802256  0.31121616    -0.12800
C2873       C  0.81837484  0.58075545  0.20277168     0.25200
C2874       C  0.82847893  0.56980940  0.17916199    -0.22900
C2875       C  0.81508747  0.54773351  0.16865074     0.20100
C2876       C  0.79318587  0.53680773  0.18136752     0.25100
C2877       C  0.78343026  0.54780353  0.20478723    -0.22900
C2878       C  0.79674712  0.56946813  0.21564679     0.20000
F2879       F  0.78776115  0.58106155  0.23797169    -0.12800
F2880       F  0.82741238  0.60381383  0.21254723    -0.15200
F2881       F  0.78118636  0.51567522  0.17027003    -0.15200
F2882       F  0.82185207  0.53768028  0.14486561    -0.12800
C2883       C  0.79123465  0.43674255  0.28867374     0.25200
C2884       C  0.78235646  0.46208821  0.29508407    -0.22900
C2885       C  0.79523598  0.47583114  0.31545395     0.20100
C2886       C  0.81608425  0.46438566  0.32926771     0.25100
C2887       C  0.82577192  0.43927056  0.32234200    -0.22900
C2888       C  0.81218091  0.42531487  0.30238830     0.20000
F2889       F  0.81754480  0.39974247  0.29722540    -0.12800
F2890       F  0.77904111  0.42233263  0.26973208    -0.15200
F2891       F  0.82518256  0.47736657  0.35076619    -0.15200
F2892       F  0.78692026  0.50000012  0.32314955    -0.12800
C2893       C  0.66340886  0.44771605  0.15479001     0.25200
C2894       C  0.68217260  0.43816786  0.17301888    -0.22900
C2895       C  0.68978888  0.41166402  0.17151961     0.20100
C2896       C  0.67953786  0.39532234  0.15181092     0.25100
C2897       C  0.66127834  0.40504378  0.13322183    -0.22900
C2898       C  0.65304196  0.43130848  0.13516551     0.20000
F2899       F  0.63564758  0.44143304  0.11750799    -0.12800
F2900       F  0.65468145  0.47289098  0.15620835    -0.15200
F2901       F  0.68733841  0.36982634  0.15107138    -0.15200
F2902       F  0.70764230  0.40165316  0.18877951    -0.12800
C2903       C  0.65854915  0.58768976  0.32076553     0.25200
C2904       C  0.68158754  0.57233615  0.32233820    -0.22900
C2905       C  0.69742185  0.57415037  0.34505245     0.20100
C2906       C  0.69001275  0.59054600  0.36599004     0.25100
C2907       C  0.66679930  0.60586895  0.36447641    -0.22900
C2908       C  0.65133636  0.60432812  0.34144642     0.20000
F2909       F  0.62944350  0.61939120  0.33846802    -0.12800
F2910       F  0.64314269  0.58698315  0.29887096    -0.15200
F2911       F  0.70506947  0.59055648  0.38812147    -0.15200
F2912       F  0.71949296  0.55917409  0.34750831    -0.12800
C2913       C  0.60258869  0.59106918  0.18680844     0.25200
C2914       C  0.61424783  0.60177664  0.16386333    -0.22900
C2915       C  0.63690883  0.58944006  0.15378652     0.20100
C2916       C  0.64912453  0.56910106  0.16761377     0.25100
C2917       C  0.63923739  0.56060485  0.19215125    -0.22900
C2918       C  0.61518050  0.57109431  0.20100759     0.20000
F2919       F  0.60413180  0.56269675  0.22382219    -0.12800
F2920       F  0.57883346  0.59974384  0.19563161    -0.15200
F2921       F  0.67116432  0.55818218  0.15702217    -0.15200
F2922       F  0.64816434  0.59742065  0.13102969    -0.12800
C2923       C  0.62341514  0.44744579  0.31910197     0.25200
C2924       C  0.64629992  0.44024206  0.30500748    -0.22900
C2925       C  0.65670108  0.41468662  0.30876593     0.20100
C2926       C  0.64407302  0.39674868  0.32516868     0.25100
C2927       C  0.62106034  0.40379967  0.33856021    -0.22900
C2928       C  0.61094848  0.42932047  0.33579701     0.20000
F2929       F  0.58823242  0.43620551  0.34817793    -0.12800
F2930       F  0.61282519  0.47178696  0.31647024    -0.15200
F2931       F  0.65367517  0.37190984  0.32705605    -0.15200
F2932       F  0.67863015  0.40642159  0.29581895    -0.12800
C2933       C  0.32862130  0.32791174  0.53718396     0.25200
C2934       C  0.32029752  0.33922354  0.56123647    -0.22900
C2935       C  0.29869255  0.32721246  0.57434293     0.20100
C2936       C  0.28552533  0.30574886  0.56340140     0.25100
C2937       C  0.29431858  0.29445744  0.53985567    -0.22900
C2938       C  0.31564799  0.30607840  0.52658282     0.20000
F2939       F  0.32455803  0.29584856  0.50356901    -0.12800
F2940       F  0.35069231  0.33643588  0.52473520    -0.15200
F2941       F  0.26541559  0.29468437  0.57714827    -0.15200
F2942       F  0.29153757  0.33423801  0.59905088    -0.12800
C2943       C  0.21021678  0.29879295  0.42843687     0.25200
C2944       C  0.20506217  0.29089436  0.45443646    -0.22900
C2945       C  0.18612838  0.30492748  0.46904108     0.20100
C2946       C  0.17254328  0.32597509  0.45796335     0.25100
C2947       C  0.17845208  0.33490396  0.43228821    -0.22900
C2948       C  0.19685154  0.32015492  0.41741487     0.20000
F2949       F  0.20059442  0.32497819  0.39143098    -0.12800
F2950       F  0.22746307  0.28528699  0.41310808    -0.15200
F2951       F  0.15194712  0.33570755  0.47191860    -0.15200
F2952       F  0.17945565  0.29755482  0.49383530    -0.12800
C2953       C  0.34754997  0.17608532  0.44216471     0.25200
C2954       C  0.32780939  0.19304929  0.43226750    -0.22900
C2955       C  0.32788766  0.19923011  0.40530303     0.20100
C2956       C  0.34724466  0.18880769  0.38867796     0.25100
C2957       C  0.36672946  0.17169257  0.39853630    -0.22900
C2958       C  0.36668572  0.16536029  0.42538758     0.20000
F2959       F  0.38569606  0.14949807  0.43555840    -0.12800
F2960       F  0.34809221  0.16945001  0.46803390    -0.15200
F2961       F  0.34688581  0.19535199  0.36278412    -0.15200
F2962       F  0.30956069  0.21583157  0.39507691    -0.12800
C2963       C  0.15488401  0.20378199  0.56686150     0.25200
C2964       C  0.17885440  0.18988430  0.56590948    -0.22900
C2965       C  0.18179135  0.16719160  0.58149150     0.20100
C2966       C  0.16124812  0.15856742  0.59769536     0.25100
C2967       C  0.13723710  0.17233189  0.59858824    -0.22900
C2968       C  0.13420106  0.19499169  0.58289891     0.20000
F2969       F  0.11091399  0.20824290  0.58249275    -0.12800
F2970       F  0.15105178  0.22522866  0.55145477    -0.15200
F2971       F  0.16522894  0.13720910  0.61315967    -0.15200
F2972       F  0.20484868  0.15354823  0.58140819    -0.12800
C2973       C  0.32956653  0.16549215  0.57291251     0.25200
C2974       C  0.30783767  0.15379159  0.55987722    -0.22900
C2975       C  0.29990354  0.12843205  0.56756249     0.20100
C2976       C  0.31289766  0.11545283  0.58801859     0.25100
C2977       C  0.33382764  0.12764906  0.60165512    -0.22900
C2978       C  0.34228567  0.15258529  0.59361959     0.20000
F2979       F  0.36209447  0.16511150  0.60657300    -0.12800
F2980       F  0.33827711  0.18978761  0.56619298    -0.15200
F2981       F  0.30502472  0.09076283  0.59433460    -0.15200
F2982       F  0.27924539  0.11618777  0.55568267    -0.12800
C2983       C  0.19852782  0.12482438  0.43666144     0.25200
C2984       C  0.19584954  0.15210123  0.43962391    -0.22900
C2985       C  0.17608333  0.16536591  0.42521902     0.20100
C2986       C  0.16077109  0.15198271  0.40667160     0.25100
C2987       C  0.16510175  0.12522467  0.40208438    -0.22900
C2988       C  0.18339644  0.11151298  0.41787509     0.20000
F2989       F  0.18723925  0.08534494  0.41448551    -0.12800
F2990       F  0.21690169  0.11132630  0.45069898    -0.15200
F2991       F  0.14304928  0.16557456  0.39191897    -0.15200
F2992       F  0.17202269  0.19150444  0.42861608    -0.12800
C2993       C  0.47220853  0.19187813  0.29687581     0.25200
C2994       C  0.45734791  0.21177311  0.28466539    -0.22900
C2995       C  0.43279684  0.21861136  0.29532312     0.20100
C2996       C  0.42267247  0.20503625  0.31691816     0.25100
C2997       C  0.43748024  0.18498979  0.32964465    -0.22900
C2998       C  0.46237463  0.17848913  0.31881380     0.20000
F2999       F  0.47658882  0.15783261  0.32791352    -0.12800
F3000       F  0.49617168  0.18483720  0.28717846    -0.15200
F3001       F  0.39726603  0.21024145  0.32361188    -0.15200
F3002       F  0.41749405  0.23714961  0.28359234    -0.12800
C3003       C  0.56501066  0.29542321  0.29541270     0.25200
C3004       C  0.54028118  0.30241544  0.28492940    -0.22900
C3005       C  0.52589516  0.32256568  0.29739395     0.20100
C3006       C  0.53601339  0.33556367  0.31941875     0.25100
C3007       C  0.56060411  0.32829362  0.33054825    -0.22900
C3008       C  0.57517646  0.30837293  0.31752774     0.20000
F3009       F  0.60030677  0.30255846  0.32483094    -0.12800
F3010       F  0.57995531  0.27655233  0.28382795    -0.15200
F3011       F  0.52240974  0.35678856  0.32807485    -0.15200
F3012       F  0.50249454  0.33105068  0.28738824    -0.12800
C3013       C  0.59044790  0.18804973  0.16954018     0.25200
C3014       C  0.56794599  0.18190221  0.18472771    -0.22900
C3015       C  0.56198403  0.15518692  0.18915412     0.20100
C3016       C  0.57824674  0.13530734  0.17909043     0.25100
C3017       C  0.60050541  0.14153517  0.16390340    -0.22900
C3018       C  0.60641452  0.16802617  0.15906791     0.20000
F3019       F  0.62805004  0.17452263  0.14473221    -0.12800
F3020       F  0.59671024  0.21341933  0.16428080    -0.15200
F3021       F  0.57220323  0.10982517  0.18410779    -0.15200
F3022       F  0.54058212  0.14820076  0.20361187    -0.12800
C3023       C  0.39988839  0.34874410  0.14955680     0.25200
C3024       C  0.39790340  0.37188194  0.16459640    -0.22900
C3025       C  0.41179541  0.37311542  0.18873694     0.20100
C3026       C  0.42727550  0.35189313  0.19739763     0.25100
C3027       C  0.42992158  0.32920342  0.18182787    -0.22900
C3028       C  0.41589476  0.32788742  0.15788322     0.20000
F3029       F  0.41734106  0.30610324  0.14254405    -0.12800
F3030       F  0.38574725  0.34579023  0.12704272    -0.15200
F3031       F  0.44063143  0.35409597  0.22048710    -0.15200
F3032       F  0.41132608  0.39524125  0.20361907    -0.12800
C3033       C  0.55961620  0.31090362  0.11635115     0.25200
C3034       C  0.55731615  0.31356566  0.14375544    -0.22900
C3035       C  0.57188755  0.33339015  0.15666395     0.20100
C3036       C  0.58983209  0.34892020  0.14271607     0.25100
C3037       C  0.59364733  0.34471868  0.11575817    -0.22900
C3038       C  0.57768272  0.32631681  0.10248682     0.20000
F3039       F  0.58033187  0.32257691  0.07616624    -0.12800
F3040       F  0.54570054  0.29223986  0.10320916    -0.15200
F3041       F  0.60479483  0.36672608  0.15590460    -0.15200
F3042       F  0.56925658  0.33731006  0.18295683    -0.12800
C3043       C  0.41417872  0.19693187  0.15705200     0.25200
C3044       C  0.43869177  0.20102877  0.14475886    -0.22900
C3045       C  0.44300921  0.19102028  0.11937945     0.20100
C3046       C  0.42306053  0.17674485  0.10664432     0.25100
C3047       C  0.39856934  0.17281027  0.11902199    -0.22900
C3048       C  0.39411934  0.18331537  0.14407133     0.20000
F3049       F  0.37003418  0.18115654  0.15556472    -0.12800
F3050       F  0.40933415  0.20707219  0.18128427    -0.15200
F3051       F  0.42733158  0.16736032  0.08201591    -0.15200
F3052       F  0.46654951  0.19475286  0.10717287    -0.12800
C3053       C  0.29167416  0.57830166  0.29280668     0.25200
C3054       C  0.28790396  0.55097886  0.29193051    -0.22900
C3055       C  0.30784595  0.53465875  0.30231671     0.20100
C3056       C  0.32994669  0.54530748  0.31507140     0.25100
C3057       C  0.33256636  0.57278556  0.31816506    -0.22900
C3058       C  0.31373135  0.58897594  0.30541141     0.20000
F3059       F  0.31560576  0.61555092  0.30686574    -0.12800
F3060       F  0.27335959  0.59498540  0.28268110    -0.15200
F3061       F  0.34809782  0.52820691  0.32443517    -0.15200
F3062       F  0.30593535  0.50812716  0.30048606    -0.12800
C3063       C  0.31297989  0.42810878  0.19428951     0.25200
C3064       C  0.32877030  0.44371023  0.17736520    -0.22900
C3065       C  0.32229725  0.47074409  0.17520718     0.20100
C3066       C  0.30091469  0.48130541  0.18906281     0.25100
C3067       C  0.28525159  0.46543182  0.20528256    -0.22900
C3068       C  0.29190652  0.43893091  0.20834821     0.20000
F3069       F  0.27682777  0.42297161  0.22356280    -0.12800
F3070       F  0.31667981  0.40175434  0.19590332    -0.15200
F3071       F  0.29517599  0.50720006  0.18616582    -0.15200
F3072       F  0.33489019  0.48706770  0.15841769    -0.12800
C3073       C  0.15710715  0.58639063  0.13684954     0.25200
C3074       C  0.16264836  0.61336407  0.13819166    -0.22900
C3075       C  0.17835951  0.62279472  0.15901015     0.20100
C3076       C  0.18865562  0.60555767  0.17794668     0.25100
C3077       C  0.18388197  0.57835185  0.17622605    -0.22900
C3078       C  0.16770336  0.56903523  0.15554504     0.20000
F3079       F  0.16169940  0.54312542  0.15360146    -0.12800
F3080       F  0.14216081  0.57666616  0.11689209    -0.15200
F3081       F  0.20373259  0.61551508  0.19768580    -0.15200
F3082       F  0.18360656  0.64885287  0.16110905    -0.12800
C3083       C  0.18946053  0.41977004  0.36399688     0.25200
C3084       C  0.16513900  0.40622705  0.36232395    -0.22900
C3085       C  0.14939982  0.41005838  0.33977472     0.20100
C3086       C  0.15760677  0.42691487  0.31961801     0.25100
C3087       C  0.18183735  0.44047475  0.32132786    -0.22900
C3088       C  0.19778991  0.43645777  0.34365764     0.20000
F3089       F  0.22102766  0.44949788  0.34637168    -0.12800
F3090       F  0.20482724  0.41780862  0.38582235    -0.15200
F3091       F  0.14188530  0.42958258  0.29809751    -0.15200
F3092       F  0.12619350  0.39711553  0.33673622    -0.12800
C3093       C  0.15838339  0.58399406  0.32439594     0.25200
C3094       C  0.14514665  0.56955183  0.30461776    -0.22900
C3095       C  0.11792062  0.57352901  0.30097043     0.20100
C3096       C  0.10458578  0.59259116  0.31569031     0.25100
C3097       C  0.11819438  0.60797518  0.33437701    -0.22900
C3098       C  0.14497730  0.60294314  0.33919110     0.20000
F3099       F  0.15856641  0.61743720  0.35710016    -0.12800
F3100       F  0.18454195  0.58019207  0.32905142    -0.15200
F3101       F  0.07838709  0.59641355  0.31130285    -0.15200
F3102       F  0.10450859  0.56012256  0.28211230    -0.12800
C3103       C  0.10801413  0.42199826  0.18328917     0.25200
C3104       C  0.12102905  0.40840797  0.16293099    -0.22900
C3105       C  0.14663264  0.41607419  0.15587960     0.20100
C3106       C  0.15943601  0.43625781  0.16962402     0.25100
C3107       C  0.14683258  0.44922695  0.19086839    -0.22900
C3108       C  0.12077593  0.44197967  0.19719586     0.20000
F3109       F  0.10755173  0.45393810  0.21708180    -0.12800
F3110       F  0.08268760  0.41602503  0.18973128    -0.15200
F3111       F  0.18447798  0.44250732  0.16240820    -0.15200
F3112       F  0.15977223  0.40326745  0.13645697    -0.12800
C3113       C  0.78224660  0.80504544  0.06615739     0.25200
C3114       C  0.79003971  0.79408789  0.04208025    -0.22900
C3115       C  0.81010858  0.80645649  0.02765590     0.20100
C3116       C  0.82310431  0.82850807  0.03765339     0.25100
C3117       C  0.81573774  0.83967317  0.06212167    -0.22900
C3118       C  0.79522390  0.82706448  0.07632912     0.20000
F3119       F  0.78916680  0.83420823  0.10130683    -0.12800
F3120       F  0.76340785  0.79322389  0.08100595    -0.15200
F3121       F  0.84445996  0.83716093  0.02414316    -0.15200
F3122       F  0.81790841  0.79667245  0.00404965    -0.12800
C3123       C  0.67845820  0.80302418  0.97181973     0.25200
C3124       C  0.70117018  0.79225657  0.96014040    -0.22900
C3125       C  0.71158450  0.80438400  0.93763687     0.20100
C3126       C  0.69934243  0.82636555  0.92667458     0.25100
C3127       C  0.67681264  0.83781050  0.93858281    -0.22900
C3128       C  0.66627148  0.82515373  0.96104074     0.20000
F3129       F  0.64271479  0.83258614  0.97137939    -0.12800
F3130       F  0.66686788  0.79118884  0.99277688    -0.15200
F3131       F  0.70853551  0.83464619  0.90307470    -0.15200
F3132       F  0.73330139  0.79449607  0.92549828    -0.12800
C3133       C  0.65139575  0.69707775  0.06571176     0.25200
C3134       C  0.67709796  0.68706806  0.06859373    -0.22900
C3135       C  0.68221530  0.66846594  0.08839473     0.20100
C3136       C  0.66194298  0.66011475  0.10515067     0.25100
C3137       C  0.63609429  0.66955630  0.10179713    -0.22900
C3138       C  0.63102132  0.68825408  0.08206104     0.20000
F3139       F  0.60619683  0.69772511  0.07843172    -0.12800
F3140       F  0.64582422  0.71466623  0.04641684    -0.15200
F3141       F  0.66785365  0.64382206  0.12538765    -0.15200
F3142       F  0.70703071  0.65893387  0.09193839    -0.12800
C3143       C  0.84225463  0.67833068  0.93991893     0.25200
C3144       C  0.82191460  0.69498597  0.93080127    -0.22900
C3145       C  0.82076502  0.70092221  0.90375671     0.20100
C3146       C  0.84000896  0.69117208  0.88648898     0.25100
C3147       C  0.86053108  0.67493533  0.89579608    -0.22900
C3148       C  0.86118972  0.66828255  0.92256475     0.20000
F3149       F  0.88081841  0.65285868  0.93219620    -0.12800
F3150       F  0.84367556  0.67138429  0.96566973    -0.15200
F3151       F  0.83859225  0.69758694  0.86059471    -0.15200
F3152       F  0.80140213  0.71667612  0.89408082    -0.12800
C3153       C  0.69596688  0.62375720  0.93823500     0.25200
C3154       C  0.69439928  0.65132720  0.93916531    -0.22900
C3155       C  0.67686331  0.66427861  0.92180272     0.20100
C3156       C  0.66249936  0.65016677  0.90305352     0.25100
C3157       C  0.66559065  0.62295745  0.90094097    -0.22900
C3158       C  0.68186155  0.60973666  0.91910420     0.20000
F3159       F  0.68452825  0.58323572  0.91790976    -0.12800
F3160       F  0.71212442  0.61043672  0.95488743    -0.15200
F3161       F  0.64675299  0.66334991  0.88595115    -0.15200
F3162       F  0.67395937  0.69077815  0.92249847    -0.12800
C3163       C  0.83144521  0.66349842  0.06964572     0.25200
C3164       C  0.80835942  0.65265053  0.05825595    -0.22900
C3165       C  0.79987737  0.62781967  0.06693373     0.20100
C3166       C  0.81326794  0.61480420  0.08710338     0.25100
C3167       C  0.83507920  0.62652516  0.09982428    -0.22900
C3168       C  0.84449907  0.65066665  0.09032383     0.20000
F3169       F  0.86562423  0.66254496  0.10172338    -0.12800
F3170       F  0.84120193  0.68687513  0.06127886    -0.15200
F3171       F  0.80478785  0.59049457  0.09406234    -0.15200
F3172       F  0.77814584  0.61618255  0.05643649    -0.12800
C3173       C  0.28483082  0.80658572  0.43178192     0.25200
C3174       C  0.29683449  0.79214155  0.45215958    -0.22900
C3175       C  0.32124198  0.80083625  0.46211786     0.20100
C3176       C  0.33373771  0.82270452  0.45140988     0.25100
C3177       C  0.32214555  0.83717049  0.43059498    -0.22900
C3178       C  0.29732343  0.82858533  0.42095053     0.20000
F3179       F  0.28563008  0.83970185  0.39974734    -0.12800
F3180       F  0.26147377  0.79871538  0.42120868    -0.15200
F3181       F  0.35840067  0.82848321  0.46028130    -0.15200
F3182       F  0.33365538  0.78781959  0.48191747    -0.12800
C3183       C  0.19214530  0.81110556  0.52284722     0.25200
C3184       C  0.20976499  0.79574147  0.53784231    -0.22900
C3185       C  0.21425700  0.80280739  0.56421200     0.20100
C3186       C  0.20039063  0.82351833  0.57570453     0.25100
C3187       C  0.18224967  0.83882413  0.56098694    -0.22900
C3188       C  0.17827104  0.83192550  0.53428316     0.20000
F3189       F  0.15930232  0.84348046  0.51942271    -0.12800
F3190       F  0.18702255  0.80522633  0.49727488    -0.15200
F3191       F  0.20326190  0.82689477  0.60203876    -0.15200
F3192       F  0.23105069  0.78878854  0.57963118    -0.12800
C3193       C  0.16037991  0.66749571  0.43909734     0.25200
C3194       C  0.17618376  0.68942170  0.43285294    -0.22900
C3195       C  0.17049678  0.70340564  0.40969031     0.20100
C3196       C  0.15012100  0.69518714  0.39276725     0.25100
C3197       C  0.13420474  0.67319716  0.39898835    -0.22900
C3198       C  0.13947409  0.65976266  0.42266360     0.20000
F3199       F  0.12388033  0.63960998  0.43059843    -0.12800
F3200       F  0.16468864  0.65380946  0.46162802    -0.15200
F3201       F  0.14672673  0.70837156  0.36981615    -0.15200
F3202       F  0.18531414  0.72453064  0.40283874    -0.12800
C3203       C  0.32241275  0.67711715  0.58665046     0.25200
C3204       C  0.32827009  0.69587831  0.56709137    -0.22900
C3205       C  0.35463556  0.70422032  0.56424326     0.20100
C3206       C  0.37456035  0.69433565  0.58071391     0.25100
C3207       C  0.36872416  0.67544725  0.60004069    -0.22900
C3208       C  0.34251283  0.66679849  0.60274711     0.20000
F3209       F  0.33625415  0.64883749  0.62145485    -0.12800
F3210       F  0.29733257  0.66818760  0.58971630    -0.15200
F3211       F  0.39972908  0.70299004  0.57754555    -0.15200
F3212       F  0.36107975  0.72234172  0.54575885    -0.12800
C3213       C  0.17262190  0.65656642  0.60214212     0.25200
C3214       C  0.16221091  0.63193840  0.59589622    -0.22900
C3215       C  0.16877684  0.62013013  0.57179622     0.20100
C3216       C  0.18550313  0.63296843  0.55402367     0.25100
C3217       C  0.19642016  0.65761367  0.56042822    -0.22900
C3218       C  0.18932885  0.66940736  0.58463435     0.20000
F3219       F  0.19949323  0.69290741  0.59220439    -0.12800
F3220       F  0.16822610  0.66735431  0.62616932    -0.15200
F3221       F  0.19151577  0.62091480  0.53097426    -0.15200
F3222       F  0.16049637  0.59538727  0.56628043    -0.12800
C3223       C  0.32813611  0.66727036  0.42313855     0.25200
C3224       C  0.30947484  0.65363828  0.43876692    -0.22900
C3225       C  0.30575337  0.62662492  0.43437147     0.20100
C3226       C  0.31976709  0.61378698  0.41449272     0.25100
C3227       C  0.33763204  0.62768874  0.39851956    -0.22900
C3228       C  0.34210907  0.65433002  0.40333309     0.20000
F3229       F  0.35900588  0.66818860  0.38794370    -0.12800
F3230       F  0.33223089  0.69344858  0.42616203    -0.15200
F3231       F  0.31591667  0.58765278  0.41083678    -0.15200
F3232       F  0.28851355  0.61257080  0.44917107    -0.12800
loop_ 
_geom_bond_atom_site_label_1 
_geom_bond_atom_site_label_2 
_geom_bond_distance 
_geom_bond_site_symmetry_2 
_ccdc_geom_bond_type 
O1           C17   1.276       .  A
O1           Zn7   2.007       .  S
C2           O18   1.275       .  A
C2           O15   1.276       .  A
C2         C3204   1.491       .  S
O3           C16   1.283       .  A
O3          Cd10   2.105       .  S
O4           C22   1.272       .  A
O4          Cd13   2.029       .  S
O5           C19   1.277       .  A
O5           Cd9   2.069       .  S
O6           C17   1.277       .  A
O6           Cd9   2.071       .  S
Zn7          O18   2.035       .  S
Zn7          O20   1.972       .  S
Zn7          O12   1.897       .  S
O8           C19   1.278       .  A
O8          Cd13   2.071       .  S
Cd9          O11   2.109       .  S
Cd9          O12   1.985       .  S
Cd10         O14   2.073       .  S
Cd10         O23   2.104       .  S
Cd10         O12   1.981       .  S
O11          C21   1.281       .  A
O12         Cd13   1.956       .  S
Cd13         O15   2.093       .  S
O14          C21   1.275       .  A
C16          O20   1.272       .  A
C16        C3224   1.486       .  S
C17        C3174   1.486       .  S
C19        C3184   1.490       .  S
C21        C3194   1.493       .  S
C22          O23   1.283       .  A
C22        C3217   1.487       .  S
O24          C40   1.275       .  A
O24         Zn30   2.023   1_556  S
C25          O41   1.278       .  A
C25          O38   1.277       .  A
C25        C3114   1.481       .  S
O26          C39   1.281       .  A
O26         Cd33   2.092       .  S
O27          C45   1.278       .  A
O27         Cd36   2.086       .  S
O28          C42   1.277       .  A
O28         Cd32   2.067       .  S
O29          C40   1.275       .  A
O29         Cd32   2.081       .  S
Zn30         O41   2.017       .  S
Zn30         O43   2.001       .  S
Zn30         O35   1.897       .  S
O31          C42   1.275       .  A
O31         Cd36   2.061   1_556  S
Cd32         O34   2.042       .  S
Cd32         O35   1.962   1_556  S
Cd33         O37   2.103   1_554  S
Cd33         O46   2.069       .  S
Cd33         O35   1.975       .  S
O34          C44   1.274       .  A
O35         Cd36   1.979       .  S
Cd36         O38   2.073       .  S
O37          C44   1.282       .  A
C39          O43   1.274       .  A
C39        C3164   1.491       .  S
C40        C3144   1.489       .  S
C42        C3124   1.482       .  S
C44        C3154   1.485       .  S
C45          O46   1.275       .  A
C45        C3134   1.476       .  S
O47          C63   1.275       .  A
O47         Zn53   2.031       .  S
C48          O64   1.278       .  A
C48          O61   1.278       .  A
C48        C3067   1.477       .  S
O49          C62   1.283       .  A
O49         Cd56   2.104       .  S
O50          C68   1.281       .  A
O50         Cd59   2.106       .  S
O51          C65   1.278       .  A
O51         Cd55   2.073       .  S
O52          C63   1.276       .  A
O52         Cd55   2.087       .  S
Zn53         O64   2.020       .  S
Zn53         O66   1.988       .  S
Zn53         O58   1.898       .  S
O54          C65   1.278       .  A
O54         Cd59   2.076       .  S
Cd55         O57   2.043       .  S
Cd55         O58   1.962       .  S
Cd56         O60   2.112       .  S
Cd56         O69   2.070       .  S
Cd56         O58   1.977       .  S
O57          C67   1.274       .  A
O58         Cd59   1.982       .  S
Cd59         O61   2.079       .  S
O60          C67   1.284       .  A
C62          O66   1.273       .  A
C62        C3107   1.492       .  S
C63        C3077   1.493       .  S
C65        C3054   1.489       .  S
C67        C3094   1.483       .  S
C68          O69   1.275       .  A
C68        C3087   1.491       .  S
O70          C86   1.275       .  A
O70         Zn76   2.022       .  S
C71          O87   1.276       .  A
C71          O84   1.278       .  A
C71        C2994   1.481       .  S
O72          C85   1.279       .  A
O72         Cd79   2.089       .  S
O73          C91   1.280       .  A
O73         Cd82   2.106       .  S
O74          C88   1.281       .  A
O74         Cd78   2.092       .  S
O75          C86   1.280       .  A
O75         Cd78   2.106       .  S
Zn76         O87   2.012       .  S
Zn76         O89   1.994       .  S
Zn76         O81   1.898       .  S
O77          C88   1.276       .  A
O77         Cd82   2.057       .  S
Cd78         O80   2.055       .  S
Cd78         O81   1.972       .  S
Cd79         O83   2.086       .  S
Cd79         O92   2.069       .  S
Cd79         O81   1.979       .  S
O80          C90   1.275       .  A
O81         Cd82   1.982       .  S
Cd82         O84   2.079       .  S
O83          C90   1.280       .  A
C85          O89   1.274       .  A
C85        C3044   1.469       .  S
C86        C3014   1.495       .  S
C88        C3004   1.490       .  S
C90        C3034   1.479       .  S
C91          O92   1.275       .  A
C91        C3027   1.491       .  S
O93         C109   1.274       .  A
O93         Zn99   2.014       .  S
C94         O110   1.276       .  A
C94         O107   1.278       .  A
C94        C2937   1.480       .  S
O95         C108   1.279       .  A
O95        Cd102   2.080       .  S
O96         C114   1.279       .  A
O96        Cd105   2.096       .  S
O97         C111   1.277       .  A
O97        Cd101   2.069       .  S
O98         C109   1.277       .  A
O98        Cd101   2.084       .  S
Zn99        O110   2.014       .  S
Zn99        O112   1.992       .  S
Zn99        O104   1.893       .  S
O100        C111   1.275       .  A
O100       Cd105   2.052       .  S
Cd101       O103   2.048       .  S
Cd101       O104   1.962       .  S
Cd102       O106   2.087       .  S
Cd102       O115   2.053       .  S
Cd102       O104   1.972       .  S
O103        C113   1.274       .  A
O104       Cd105   1.972       .  S
Cd105       O107   2.073       .  S
O106        C113   1.279       .  A
C108        O112   1.274       .  A
C108       C2974   1.487       .  S
C109       C2954   1.486       .  S
C111       C2944   1.485       .  S
C113       C2984   1.477       .  S
C114        O115   1.273       .  A
C114       C2964   1.481       .  S
O116        C132   1.278       .  A
O116       Zn122   2.030       .  S
C117        O133   1.273       .  A
C117        O130   1.276       .  A
C117       C2894   1.488       .  S
O118        C131   1.284       .  A
O118       Cd125   2.111       .  S
O119        C137   1.272       .  A
O119       Cd128   2.035       .  S
O120        C134   1.274       .  A
O120       Cd124   2.050       .  S
O121        C132   1.277       .  A
O121       Cd124   2.076       .  S
Zn122       O133   2.017       .  S
Zn122       O135   1.973       .  S
Zn122       O127   1.895       .  S
O123        C134   1.277       .  A
O123       Cd128   2.066       .  S
Cd124       O126   2.088       .  S
Cd124       O127   1.977       .  S
Cd125       O129   2.077       .  S
Cd125       O138   2.119       .  S
Cd125       O127   1.987       .  S
O126        C136   1.278       .  A
O127       Cd128   1.963       .  S
Cd128       O130   2.086       .  S
O129        C136   1.277       .  A
C131        O135   1.273       .  A
C131       C2917   1.488       .  S
C132       C2877   1.489       .  S
C134       C2884   1.483       .  S
C136       C2904   1.485       .  S
C137        O138   1.284       .  A
C137       C2924   1.493       .  S
O139        C155   1.277       .  A
O139       Zn145   2.018       .  S
C140        O156   1.275       .  A
C140        O153   1.275       .  A
C140       C2847   1.495       .  S
O141        C154   1.280       .  A
O141       Cd148   2.087       .  S
O142        C160   1.273       .  A
O142       Cd151   2.042       .  S
O143        C157   1.278       .  A
O143       Cd147   2.066   1_655  S
O144        C155   1.280       .  A
O144       Cd147   2.089       .  S
Zn145       O156   2.029   1_455  S
Zn145       O158   1.975       .  S
Zn145       O150   1.892       .  S
O146        C157   1.276       .  A
O146       Cd151   2.051       .  S
Cd147       O149   2.122       .  S
Cd147       O150   1.981       .  S
Cd148       O152   2.066       .  S
Cd148       O161   2.092   1_455  S
Cd148       O150   1.970       .  S
O149        C159   1.283       .  A
O150       Cd151   1.954   1_455  S
Cd151       O153   2.081       .  S
O152        C159   1.275       .  A
C154        O158   1.273       .  A
C154       C2864   1.469       .  S
C155       C2817   1.490       .  S
C157       C2824   1.477       .  S
C159       C2837   1.494       .  S
C160        O161   1.281       .  A
C160       C2857   1.482       .  S
O162        C178   1.273       .  A
O162       Zn168   2.009       .  S
C163        O179   1.276       .  A
C163        O176   1.278       .  A
C163       C2754   1.484       .  S
O164        C177   1.283       .  A
O164       Cd171   2.101       .  S
O165        C183   1.280       .  A
O165       Cd174   2.102       .  S
O166        C180   1.279       .  A
O166       Cd170   2.072       .  S
O167        C178   1.278       .  A
O167       Cd170   2.101       .  S
Zn168       O179   2.020   1_545  S
Zn168       O181   1.975   1_545  S
Zn168       O173   1.893       .  S
O169        C180   1.276       .  A
O169       Cd174   2.055   1_545  S
Cd170       O172   2.048       .  S
Cd170       O173   1.965       .  S
Cd171       O175   2.100   1_565  S
Cd171       O184   2.071       .  S
Cd171       O173   1.978   1_565  S
O172        C182   1.274       .  A
O173       Cd174   1.977   1_545  S
Cd174       O176   2.077       .  S
O175        C182   1.282       .  A
C177        O181   1.272       .  A
C177       C2797   1.487       .  S
C178       C2777   1.493       .  S
C180       C2767   1.486       .  S
C182       C2807   1.484       .  S
C183        O184   1.275       .  A
C183       C2787   1.488       .  S
O185        C201   1.278       .  A
O185       Zn191   2.017       .  S
C186        O202   1.274       .  A
C186        O199   1.276       .  A
C186       C2714   1.485       .  S
O187        C200   1.283       .  A
O187       Cd194   2.102       .  S
O188        C206   1.273       .  A
O188       Cd197   2.041       .  S
O189        C203   1.276       .  A
O189       Cd193   2.068       .  S
O190        C201   1.276       .  A
O190       Cd193   2.068       .  S
Zn191       O202   2.018       .  S
Zn191       O204   1.993       .  S
Zn191       O196   1.892       .  S
O192        C203   1.278       .  A
O192       Cd197   2.072       .  S
Cd193       O195   2.085       .  S
Cd193       O196   1.975       .  S
Cd194       O198   2.062       .  S
Cd194       O207   2.096       .  S
Cd194       O196   1.978       .  S
O195        C205   1.279       .  A
O196       Cd197   1.959       .  S
Cd197       O199   2.082       .  S
O198        C205   1.274       .  A
C200        O204   1.274       .  A
C200       C2744   1.493       .  S
C201       C2694   1.483       .  S
C203       C2707   1.490       .  S
C205       C2724   1.478       .  S
C206        O207   1.281       .  A
C206       C2734   1.487       .  S
C208        C209   1.550       .  S
C208        C214   1.530       .  S
C208        C212   1.538       .  S
C208       C2684   1.535       .  S
C209        H216   1.079       .  S
C209        C210   1.373       .  D
C210        C211   1.540       .  S
C210       C2674   1.492       .  S
C211        C215   1.535       .  S
C211        C213   1.543       .  S
C211        H217   1.109       .  S
C212        H218   1.085       .  S
C212        C213   1.367       .  D
C213       C2727   1.488       .  S
C214        H219   1.088       .  S
C214        C215   1.356       .  D
C215       C2794   1.478       .  S
C220        C221   1.534       .  S
C220        C226   1.534       .  S
C220        C224   1.550       .  S
C220       C2664   1.534       .  S
C221        H228   1.084       .  S
C221        C222   1.362       .  D
C222        C223   1.540       .  S
C222       C2774   1.484       .  S
C223        C227   1.536       .  S
C223        C225   1.544       .  S
C223        H229   1.110       .  S
C224        H230   1.079       .  S
C224        C225   1.373       .  D
C225       C2654   1.493       .  S
C226        H231   1.089       .  S
C226        C227   1.358       .  D
C227       C2854   1.473       .  S
C232        C233   1.533       .  S
C232        C238   1.532       .  S
C232        C236   1.549       .  S
C232       C2644   1.532       .  S
C233        H240   1.085       .  S
C233        C234   1.370       .  D
C234        C235   1.548       .  S
C234       C2624   1.504       .  S
C235        C239   1.538       .  S
C235        C237   1.542       .  S
C235        H241   1.106       .  S
C236        H242   1.080       .  S
C236        C237   1.370       .  D
C237       C2637   1.492       .  S
C238        H243   1.087       .  S
C238        C239   1.354       .  D
C239       C2737   1.472       .  S
C244        C245   1.547       .  S
C244        C250   1.533       .  S
C244        C248   1.542       .  S
C244       C2617   1.539       .  S
C245        H252   1.074       .  S
C245        C246   1.365       .  D
C246        C247   1.537       .  S
C246       C2604   1.475       .  S
C247        C251   1.536       .  S
C247        C249   1.552       .  S
C247        H253   1.108       .  S
C248        H254   1.089       .  S
C248        C249   1.373       .  D
C249       C2834   1.509       .  S
C250        H255   1.085       .  S
C250        C251   1.357       .  D
C251       C2987   1.478       .  S
C256        C257   1.542       .  S
C256        C262   1.535       .  S
C256        C260   1.542       .  S
C256       C2594   1.535       .  S
C257        H264   1.093       .  S
C257        C258   1.365       .  D
C258        C259   1.546       .  S
C258       C2967   1.488       .  S
C259        C263   1.535       .  S
C259        C261   1.542       .  S
C259        H265   1.109       .  S
C260        H266   1.085       .  S
C260        C261   1.369       .  D
C261       C2584   1.489       .  S
C262        H267   1.087       .  S
C262        C263   1.355       .  D
C263       C2574   1.476       .  S
C268        C269   1.549       .  S
C268        C274   1.532       .  S
C268        C272   1.540       .  S
C268       C3187   1.533       .  S
C269        H276   1.083       .  S
C269        C270   1.368       .  D
C270        C271   1.535       .  S
C270       C2564   1.480       .  S
C271        C275   1.539       .  S
C271        C273   1.541       .  S
C271        H277   1.110       .  S
C272        H278   1.085       .  S
C272        C273   1.364       .  D
C273       C2547   1.483       .  S
C274        H279   1.087       .  S
C274        C275   1.360       .  D
C275       C2554   1.485       .  S
O280        C296   1.276       .  A
O280       Zn286   2.032   1_455  S
C281        O297   1.277       .  A
C281        O294   1.274       .  A
C281       C2677   1.486       .  S
O282        C295   1.277       .  A
O282       Cd289   2.091       .  S
O283        C301   1.274       .  A
O283       Cd292   2.061       .  S
O284        C298   1.274       .  A
O284       Cd288   2.071   1_565  S
O285        C296   1.273       .  A
O285       Cd288   2.058       .  S
Zn286       O297   2.039   1_545  S
Zn286       O299   2.004       .  S
Zn286       O291   1.946   1_655  S
O287        C298   1.276       .  A
O287       Cd292   2.070   1_455  S
Cd288       O290   2.057       .  S
Cd288       O291   1.998       .  S
Cd289       O293   2.093   1_655  S
Cd289       O302   2.090       .  S
Cd289       O291   2.018   1_655  S
O290        C300   1.273       .  A
O291       Cd292   1.994   1_445  S
Cd292       O294   2.070       .  S
O293        C300   1.278       .  A
C295        O299   1.273       .  A
C295       C2657   1.477       .  S
C296       C2607   1.486       .  S
C298       C2567   1.487       .  S
C300       C2587   1.484       .  S
C301        O302   1.277   1_565  A
C301       C2634   1.477       .  S
O303        C319   1.274       .  A
O303       Zn309   2.024       .  S
C304        O320   1.275       .  A
C304        O317   1.277       .  A
C304       C2497   1.483       .  S
O305        C318   1.280       .  A
O305       Cd312   2.084       .  S
O306        C324   1.279       .  A
O306       Cd315   2.098       .  S
O307        C321   1.279       .  A
O307       Cd311   2.082       .  S
O308        C319   1.278       .  A
O308       Cd311   2.098       .  S
Zn309       O320   2.000       .  S
Zn309       O322   1.986       .  S
Zn309       O314   1.902       .  S
O310        C321   1.276       .  A
O310       Cd315   2.059       .  S
Cd311       O313   2.049       .  S
Cd311       O314   1.964       .  S
Cd312       O316   2.098       .  S
Cd312       O325   2.065       .  S
Cd312       O314   1.980       .  S
O313        C323   1.274       .  A
O314       Cd315   1.983       .  S
Cd315       O317   2.073       .  S
O316        C323   1.281       .  A
C318        O322   1.272       .  A
C318       C2527   1.482       .  S
C319       C2504   1.489       .  S
C321       C2667   1.482       .  S
C323       C2534   1.478       .  S
C324        O325   1.273       .  A
C324       C2514   1.476       .  S
O326        C342   1.275       .  A
O326       Zn332   2.023   1_455  S
C327        O343   1.277       .  A
C327        O340   1.277       .  A
C327       C2454   1.490       .  S
O328        C341   1.280       .  A
O328       Cd335   2.089       .  S
O329        C347   1.279       .  A
O329       Cd338   2.089       .  S
O330        C344   1.278       .  A
O330       Cd334   2.070       .  S
O331        C342   1.276       .  A
O331       Cd334   2.080       .  S
Zn332       O343   2.019       .  S
Zn332       O345   2.000       .  S
Zn332       O337   1.898   1_655  S
O333        C344   1.275       .  A
O333       Cd338   2.060   1_455  S
Cd334       O336   2.044       .  S
Cd334       O337   1.953       .  S
Cd335       O339   2.102   1_655  S
Cd335       O348   2.065       .  S
Cd335       O337   1.978   1_655  S
O336        C346   1.274       .  A
O337       Cd338   1.978   1_455  S
Cd338       O340   2.071       .  S
O339        C346   1.281       .  A
C341        O345   1.274       .  A
C341       C2484   1.465       .  S
C342       C2477   1.480       .  S
C344       C2464   1.481       .  S
C346       C2557   1.480       .  S
C347        O348   1.275       .  A
C347       C2627   1.487       .  S
C349        C350   1.542       .  S
C349        C355   1.533       .  S
C349        C353   1.538       .  S
C349       C2444   1.533       .  S
C350        H357   1.078       .  S
C350        C351   1.365       .  D
C351        C352   1.545       .  S
C351       C2474   1.490       .  S
C352        C356   1.538       .  S
C352        C354   1.548       .  S
C352        H358   1.109       .  S
C353        H359   1.085       .  S
C353        C354   1.373       .  D
C354       C2437   1.497       .  S
C355        H360   1.088       .  S
C355        C356   1.353       .  D
C356       C3214   1.470       .  S
C361        C362   1.542       .  S
C361        C367   1.526       .  S
C361        C365   1.544       .  S
C361       C2947   1.528       .  S
C362        H369   1.084       .  S
C362        C363   1.372       .  D
C363        C364   1.551       .  S
C363       C3084   1.500       .  S
C364        C368   1.534       .  S
C364        C366   1.543       .  S
C364        H370   1.108       .  S
C365        H371   1.083       .  S
C365        C366   1.366       .  D
C366       C2427   1.490       .  S
C367        H372   1.088       .  S
C367        C368   1.352       .  D
C368       C2867   1.465       .  S
C373        C374   1.545       .  S
C373        C379   1.528       .  S
C373        C377   1.544       .  S
C373       C2704   1.533       .  S
C374        H381   1.084       .  S
C374        C375   1.369       .  D
C375        C376   1.542       .  S
C375       C2414   1.484       .  S
C376        C380   1.537       .  S
C376        C378   1.541       .  S
C376        H382   1.111       .  S
C377        H383   1.081       .  S
C377        C378   1.366       .  D
C378       C2404   1.481       .  S
C379        H384   1.087       .  S
C379        C380   1.357       .  D
C380       C2487   1.477       .  S
C385        C386   1.542       .  S
C385        C391   1.529       .  S
C385        C389   1.539       .  S
C385       C2887   1.527       .  S
C386        H393   1.084       .  S
C386        C387   1.365       .  D
C387        C388   1.539       .  S
C387       C2394   1.475       .  S
C388        C392   1.542       .  S
C388        C390   1.545       .  S
C388        H394   1.111       .  S
C389        H395   1.085       .  S
C389        C390   1.362       .  D
C390       C2844   1.480       .  S
C391        H396   1.088       .  S
C391        C392   1.361       .  D
C392       C2537   1.485       .  S
C397        C398   1.530       .  S
C397        C403   1.535       .  S
C397        C401   1.551       .  S
C397       C2387   1.531       .  S
C398        H405   1.087       .  S
C398        C399   1.359       .  D
C399        C400   1.546       .  S
C399       C2517   1.481       .  S
C400        C404   1.543       .  S
C400        C402   1.542       .  S
C400        H406   1.109       .  S
C401        H407   1.080       .  S
C401        C402   1.372       .  D
C402       C2374   1.492       .  S
C403        H408   1.087       .  S
C403        C404   1.360       .  D
C404       C2364   1.488       .  S
C409        C410   1.549       .  S
C409        C415   1.534       .  S
C409        C413   1.537       .  S
C409       C2354   1.540       .  S
C410        H417   1.082       .  S
C410        C411   1.369       .  D
C411        C412   1.543       .  S
C411       C2344   1.490       .  S
C412        C416   1.537       .  S
C412        C414   1.553       .  S
C412        H418   1.108       .  S
C413        H419   1.085       .  S
C413        C414   1.371       .  D
C414       C3197   1.506       .  S
C415        H420   1.087       .  S
C415        C416   1.357       .  D
C416       C3097   1.483       .  S
O421        C437   1.275       .  A
O421       Zn427   2.037       .  S
C422        O438   1.276       .  A
C422        O435   1.276       .  A
C422       C2417   1.485       .  S
O423        C436   1.279       .  A
O423       Cd430   2.098       .  S
O424        C442   1.275       .  A
O424       Cd433   2.070       .  S
O425        C439   1.274       .  A
O425       Cd429   2.064   1_655  S
O426        C437   1.273       .  A
O426       Cd429   2.067       .  S
Zn427       O438   2.032   1_455  S
Zn427       O440   2.008       .  S
Zn427       O432   1.948   1_455  S
O428        C439   1.276       .  A
O428       Cd433   2.070       .  S
Cd429       O431   2.048       .  S
Cd429       O432   1.996   1_455  S
Cd430       O434   2.109       .  S
Cd430       O443   2.104   1_455  S
Cd430       O432   2.022   1_455  S
O431        C441   1.272       .  A
O432       Cd433   2.002       .  S
Cd433       O435   2.082       .  S
O434        C441   1.280       .  A
C436        O440   1.274       .  A
C436       C2434   1.482       .  S
C437       C2347   1.488       .  S
C439       C2397   1.478       .  S
C441       C2424   1.486       .  S
C442        O443   1.280       .  A
C442       C2377   1.491       .  S
C444        C445   1.549       .  S
C444        C450   1.532       .  S
C444        C448   1.534       .  S
C444       C2334   1.532       .  S
C445        H452   1.078       .  S
C445        C446   1.370       .  D
C446        C447   1.543       .  S
C446       C2324   1.487       .  S
C447        C451   1.538       .  S
C447        C449   1.545       .  S
C447        H453   1.110       .  S
C448        H454   1.086       .  S
C448        C449   1.364       .  D
C449       C2897   1.490       .  S
C450        H455   1.088       .  S
C450        C451   1.357       .  D
C451       C3037   1.479       .  S
C456        C457   1.533       .  S
C456        C462   1.532       .  S
C456        C460   1.548       .  S
C456       C2317   1.533       .  S
C457        H464   1.087       .  S
C457        C458   1.363       .  D
C458        C459   1.548       .  S
C458       C3137   1.482       .  S
C459        C463   1.548       .  S
C459        C461   1.533       .  S
C459        H465   1.107       .  S
C460        H466   1.091       .  S
C460        C461   1.362       .  D
C461       C2304   1.475       .  S
C462        H467   1.086       .  S
C462        C463   1.364       .  D
C463       C2914   1.500       .  S
C468        C469   1.545       .  S
C468        C474   1.532       .  S
C468        C472   1.541       .  S
C468       C2294   1.532       .  S
C469        H476   1.085       .  S
C469        C470   1.373       .  D
C470        C471   1.548       .  S
C470       C2284   1.497       .  S
C471        C475   1.533       .  S
C471        C473   1.544       .  S
C471        H477   1.109       .  S
C472        H478   1.079       .  S
C472        C473   1.361       .  D
C473       C2264   1.480       .  S
C474        H479   1.087       .  S
C474        C475   1.356       .  D
C475       C2274   1.474       .  S
C480        C481   1.538       .  S
C480        C486   1.535       .  S
C480        C484   1.544       .  S
C480       C2254   1.530       .  S
C481        H488   1.085       .  S
C481        C482   1.371       .  D
C482        C483   1.550       .  S
C482       C2234   1.501       .  S
C483        C487   1.534       .  S
C483        C485   1.537       .  S
C483        H489   1.108       .  S
C484        H490   1.077       .  S
C484        C485   1.363       .  D
C485       C2244   1.481       .  S
C486        H491   1.087       .  S
C486        C487   1.355       .  D
C487       C2224   1.469       .  S
C492        C493   1.548       .  S
C492        C498   1.533       .  S
C492        C496   1.540       .  S
C492       C2217   1.536       .  S
C493        H500   1.080       .  S
C493        C494   1.374       .  D
C494        C495   1.543       .  S
C494       C2204   1.494       .  S
C495        C499   1.536       .  S
C495        C497   1.542       .  S
C495        H501   1.109       .  S
C496        H502   1.086       .  S
C496        C497   1.362       .  D
C497       C2194   1.481       .  S
C498        H503   1.088       .  S
C498        C499   1.357       .  D
C499       C3157   1.479       .  S
C504        C505   1.542       .  S
C504        C510   1.530       .  S
C504        C508   1.547       .  S
C504       C3064   1.540       .  S
C505        H512   1.085       .  S
C505        C506   1.372       .  D
C506        C507   1.552       .  S
C506       C3024   1.501       .  S
C507        C511   1.537       .  S
C507        C509   1.537       .  S
C507        H513   1.109       .  S
C508        H514   1.078       .  S
C508        C509   1.367       .  D
C509       C2187   1.483       .  S
C510        H515   1.088       .  S
C510        C511   1.358       .  D
C511       C2174   1.477       .  S
O516        C532   1.275       .  A
O516       Zn522   2.029       .  S
C517        O533   1.276       .  A
C517        O530   1.276       .  A
C517       C2307   1.489       .  S
O518        C531   1.276       .  A
O518       Cd525   2.074       .  S
O519        C537   1.272       .  A
O519       Cd528   2.049       .  S
O520        C534   1.275       .  A
O520       Cd524   2.074   1_554  S
O521        C532   1.273       .  A
O521       Cd524   2.056       .  S
Zn522       O533   2.033   1_556  S
Zn522       O535   2.029       .  S
Zn522       O527   1.956       .  S
O523        C534   1.275       .  A
O523       Cd528   2.080       .  S
Cd524       O526   2.051       .  S
Cd524       O527   1.991       .  S
Cd525       O529   2.098       .  S
Cd525       O538   2.093       .  S
Cd525       O527   2.016       .  S
O526        C536   1.272       .  A
O527       Cd528   1.995   1_556  S
Cd528       O530   2.074       .  S
O529        C536   1.278       .  A
C531        O535   1.276       .  A
C531       C2207   1.486       .  S
C532       C2247   1.472       .  S
C534       C2184   1.483       .  S
C536       C2287   1.486       .  S
C537        O538   1.277   1_554  A
C537       C2327   1.472       .  S
O539        C555   1.272       .  A
O539       Zn545   2.001       .  S
C540        O556   1.274       .  A
C540        O553   1.279       .  A
C540       C2447   1.485       .  S
O541        C554   1.280       .  A
O541       Cd548   2.105       .  S
O542        C560   1.281       .  A
O542       Cd551   2.107       .  S
O543        C557   1.278       .  A
O543       Cd547   2.082       .  S
O544        C555   1.277       .  A
O544       Cd547   2.086       .  S
Zn545       O556   1.990       .  S
Zn545       O558   1.986       .  S
Zn545       O550   1.896       .  S
O546        C557   1.277       .  A
O546       Cd551   2.077       .  S
Cd547       O549   2.049       .  S
Cd547       O550   1.970       .  S
Cd548       O552   2.098       .  S
Cd548       O561   2.056       .  S
Cd548       O550   1.980       .  S
O549        C559   1.274       .  A
O550       Cd551   1.985       .  S
Cd551       O553   2.081       .  S
O552        C559   1.282       .  A
C554        O558   1.271       .  A
C554       C2164   1.469       .  S
C555       C2154   1.485       .  S
C557       C2144   1.494       .  S
C559       C2277   1.486       .  S
C560        O561   1.274       .  A
C560       C2237   1.487       .  S
C562        C563   1.544       .  S
C562        C568   1.529       .  S
C562        C566   1.545       .  S
C562       C2697   1.535       .  S
C563        H570   1.083       .  S
C563        C564   1.371       .  D
C564        C565   1.548       .  S
C564       C2137   1.499       .  S
C565        C569   1.537       .  S
C565        C567   1.546       .  S
C565        H571   1.107       .  S
C566        H572   1.083       .  S
C566        C567   1.370       .  D
C567       C2907   1.498       .  S
C568        H573   1.087       .  S
C568        C569   1.353       .  D
C569       C2124   1.475       .  S
C574        C575   1.548       .  S
C574        C580   1.528       .  S
C574        C578   1.541       .  S
C574       C2114   1.534       .  S
C575        H582   1.079       .  S
C575        C576   1.373       .  D
C576        C577   1.545       .  S
C576       C2107   1.497       .  S
C577        C581   1.530       .  S
C577        C579   1.548       .  S
C577        H583   1.106       .  S
C578        H584   1.084       .  S
C578        C579   1.370       .  D
C579       C2094   1.501       .  S
C580        H585   1.087       .  S
C580        C581   1.353       .  D
C581       C2524   1.471       .  S
C586        C587   1.541       .  S
C586        C592   1.529       .  S
C586        C590   1.540       .  S
C586       C2087   1.530       .  S
C587        H594   1.079       .  S
C587        C588   1.367       .  D
C588        C589   1.546       .  S
C588       C2074   1.485       .  S
C589        C593   1.540       .  S
C589        C591   1.548       .  S
C589        H595   1.110       .  S
C590        H596   1.086       .  S
C590        C591   1.367       .  D
C591       C3207   1.490       .  S
C592        H597   1.087       .  S
C592        C593   1.357       .  D
C593       C2167   1.484       .  S
C598        C599   1.539       .  S
C598        C604   1.533       .  S
C598        C602   1.551       .  S
C598       C3057   1.538       .  S
C599        H606   1.085       .  S
C599        C600   1.371       .  D
C600        C601   1.549       .  S
C600       C2054   1.501       .  S
C601        C605   1.534       .  S
C601        C603   1.538       .  S
C601        H607   1.109       .  S
C602        H608   1.078       .  S
C602        C603   1.370       .  D
C603       C2064   1.484       .  S
C604        H609   1.087       .  S
C604        C605   1.354       .  D
C605       C3227   1.477       .  S
C610        C611   1.544       .  S
C610        C616   1.528       .  S
C610        C614   1.547       .  S
C610       C3007   1.535       .  S
C611        H618   1.085       .  S
C611        C612   1.369       .  D
C612        C613   1.546       .  S
C612       C2507   1.491       .  S
C613        C617   1.534       .  S
C613        C615   1.539       .  S
C613        H619   1.111       .  S
C614        H620   1.084       .  S
C614        C615   1.369       .  D
C615       C2044   1.480       .  S
C616        H621   1.087       .  S
C616        C617   1.355       .  D
C617       C2927   1.472       .  S
C622        C623   1.537       .  S
C622        C628   1.531       .  S
C622        C626   1.547       .  S
C622       C2934   1.533       .  S
C623        H630   1.085       .  S
C623        C624   1.362       .  D
C624        C625   1.544       .  S
C624       C2157   1.484       .  S
C625        C629   1.537       .  S
C625        C627   1.541       .  S
C625        H631   1.110       .  S
C626        H632   1.084       .  S
C626        C627   1.372       .  D
C627       C2034   1.486       .  S
C628        H633   1.087       .  S
C628        C629   1.359       .  D
C629       C2024   1.482       .  S
O634        C650   1.277       .  A
O634       Zn640   2.036       .  S
C635        O651   1.276       .  A
C635        O648   1.273       .  A
C635       C2047   1.478       .  S
O636        C649   1.278       .  A
O636       Cd643   2.095       .  S
O637        C655   1.273       .  A
O637       Cd646   2.048       .  S
O638        C652   1.274       .  A
O638       Cd642   2.072       .  S
O639        C650   1.275       .  A
O639       Cd642   2.069       .  S
Zn640       O651   2.028       .  S
Zn640       O653   2.017       .  S
Zn640       O645   1.946       .  S
O641        C652   1.273       .  A
O641       Cd646   2.069       .  S
Cd642       O644   2.051       .  S
Cd642       O645   1.999       .  S
Cd643       O647   2.097       .  S
Cd643       O656   2.106       .  S
Cd643       O645   2.022       .  S
O644        C654   1.273       .  A
O645       Cd646   1.995       .  S
Cd646       O648   2.063       .  S
O647        C654   1.279       .  A
C649        O653   1.274       .  A
C649       C2104   1.484       .  S
C650       C2037   1.486       .  S
C652       C2067   1.484       .  S
C654       C2077   1.480       .  S
C655        O656   1.279       .  A
C655       C2134   1.481       .  S
O657        C673   1.276       .  A
O657       Zn663   2.010       .  S
C658        O674   1.275       .  A
C658        O671   1.276       .  A
C658       C2197   1.498       .  S
O659        C672   1.283       .  A
O659       Cd666   2.102       .  S
O660        C678   1.271       .  A
O660       Cd669   2.021       .  S
O661        C675   1.275       .  A
O661       Cd665   2.059       .  S
O662        C673   1.274       .  A
O662       Cd665   2.056       .  S
Zn663       O674   2.027       .  S
Zn663       O676   1.978       .  S
Zn663       O668   1.890       .  S
O664        C675   1.277       .  A
O664       Cd669   2.070       .  S
Cd665       O667   2.085       .  S
Cd665       O668   1.976       .  S
Cd666       O670   2.075       .  S
Cd666       O679   2.106       .  S
Cd666       O668   1.985       .  S
O667        C677   1.277       .  A
O668       Cd669   1.956       .  S
Cd669       O671   2.087       .  S
O670        C677   1.275       .  A
C672        O676   1.273       .  A
C672       C2227   1.475       .  S
C673       C2084   1.470       .  S
C675       C1994   1.487       .  S
C677       C2004   1.485       .  S
C678        O679   1.282       .  A
C678       C2014   1.487       .  S
O680        C696   1.276       .  A
O680       Zn686   2.015   1_565  S
C681        O697   1.275       .  A
C681        O694   1.276       .  A
C681       C1957   1.483       .  S
O682        C695   1.284       .  A
O682       Cd689   2.107       .  S
O683        C701   1.273       .  A
O683       Cd692   2.037       .  S
O684        C698   1.276       .  A
O684       Cd688   2.067   1_545  S
O685        C696   1.279       .  A
O685       Cd688   2.082       .  S
Zn686       O697   2.024       .  S
Zn686       O699   1.993   1_545  S
Zn686       O691   1.903       .  S
O687        C698   1.278       .  A
O687       Cd692   2.074       .  S
Cd688       O690   2.102       .  S
Cd688       O691   1.981   1_565  S
Cd689       O693   2.065       .  S
Cd689       O702   2.120   1_565  S
Cd689       O691   1.986   1_565  S
O690        C700   1.280       .  A
O691       Cd692   1.960       .  S
Cd692       O694   2.080       .  S
O693        C700   1.274       .  A
C695        O699   1.274       .  A
C695       C1974   1.490       .  S
C696       C1944   1.486       .  S
C698       C2614   1.487       .  S
C700       C1964   1.481       .  S
C701        O702   1.284       .  A
C701       C1984   1.490       .  S
O703        C719   1.273       .  A
O703       Zn709   2.005   1_556  S
C704        O720   1.275       .  A
C704        O717   1.278       .  A
C704       C1894   1.481       .  S
O705        C718   1.282       .  A
O705       Cd712   2.107       .  S
O706        C724   1.280       .  A
O706       Cd715   2.099       .  S
O707        C721   1.274       .  A
O707       Cd711   2.049       .  S
O708        C719   1.274       .  A
O708       Cd711   2.077       .  S
Zn709       O720   2.007       .  S
Zn709       O722   1.979       .  S
Zn709       O714   1.890   1_554  S
O710        C721   1.277       .  A
O710       Cd715   2.069   1_556  S
Cd711       O713   2.036       .  S
Cd711       O714   1.962       .  S
Cd712       O716   2.098   1_554  S
Cd712       O725   2.061       .  S
Cd712       O714   1.985   1_554  S
O713        C723   1.272       .  A
O714       Cd715   1.983   1_556  S
Cd715       O717   2.079       .  S
O716        C723   1.281       .  A
C718        O722   1.272       .  A
C718       C1934   1.481       .  S
C719       C1917   1.491       .  S
C721       C2257   1.479       .  S
C723       C1924   1.480       .  S
C724        O725   1.274       .  A
C724       C1907   1.485       .  S
C726        C727   1.551       .  S
C726        C732   1.533       .  S
C726        C730   1.542       .  S
C726       C1884   1.540       .  S
C727        H734   1.077       .  S
C727        C728   1.370       .  D
C728        C729   1.538       .  S
C728       C1874   1.487       .  S
C729        C733   1.530       .  S
C729        C731   1.546       .  S
C729        H735   1.109       .  S
C730        H736   1.086       .  S
C730        C731   1.372       .  D
C731       C2007   1.498       .  S
C732        H737   1.087       .  S
C732        C733   1.354       .  D
C733       C1927   1.473       .  S
C738        C739   1.543       .  S
C738        C744   1.525       .  S
C738        C742   1.543       .  S
C738       C3127   1.529       .  S
C739        H746   1.084       .  S
C739        C740   1.366       .  D
C740        C741   1.544       .  S
C740       C1854   1.486       .  S
C741        C745   1.533       .  S
C741        C743   1.542       .  S
C741        H747   1.111       .  S
C742        H748   1.085       .  S
C742        C743   1.371       .  D
C743       C1864   1.482       .  S
C744        H749   1.088       .  S
C744        C745   1.352       .  D
C745       C2017   1.466       .  S
C750        C751   1.541       .  S
C750        C756   1.531       .  S
C750        C754   1.547       .  S
C750       C1844   1.539       .  S
C751        H758   1.081       .  S
C751        C752   1.367       .  D
C752        C753   1.547       .  S
C752       C1904   1.496       .  S
C753        C757   1.535       .  S
C753        C755   1.548       .  S
C753        H759   1.108       .  S
C754        H760   1.084       .  S
C754        C755   1.374       .  D
C755       C1834   1.498       .  S
C756        H761   1.088       .  S
C756        C757   1.356       .  D
C757       C1977   1.479       .  S
C762        C763   1.545       .  S
C762        C768   1.535       .  S
C762        C766   1.539       .  S
C762       C1824   1.535       .  S
C763        H770   1.077       .  S
C763        C764   1.366       .  D
C764        C765   1.538       .  S
C764       C1814   1.480       .  S
C765        C769   1.534       .  S
C765        C767   1.544       .  S
C765        H771   1.111       .  S
C766        H772   1.086       .  S
C766        C767   1.368       .  D
C767       C1954   1.487       .  S
C768        H773   1.087       .  S
C768        C769   1.356       .  D
C769       C3047   1.470       .  S
C774        C775   1.542       .  S
C774        C780   1.535       .  S
C774        C778   1.544       .  S
C774       C1804   1.538       .  S
C775        H782   1.086       .  S
C775        C776   1.368       .  D
C776        C777   1.540       .  S
C776       C1797   1.493       .  S
C777        C781   1.539       .  S
C777        C779   1.551       .  S
C777        H783   1.108       .  S
C778        H784   1.077       .  S
C778        C779   1.371       .  D
C779       C1784   1.502       .  S
C780        H785   1.087       .  S
C780        C781   1.355       .  D
C781       C1774   1.476       .  S
C786        C787   1.540       .  S
C786        C792   1.528       .  S
C786        C790   1.542       .  S
C786       C2764   1.531       .  S
C787        H794   1.086       .  S
C787        C788   1.366       .  D
C788        C789   1.547       .  S
C788       C3017   1.485       .  S
C789        C793   1.535       .  S
C789        C791   1.549       .  S
C789        H795   1.110       .  S
C790        H796   1.083       .  S
C790        C791   1.370       .  D
C791       C1767   1.493       .  S
C792        H797   1.088       .  S
C792        C793   1.355       .  D
C793       C1757   1.475       .  S
O798        C814   1.277       .  A
O798       Zn804   2.034   1_565  S
C799        O815   1.276       .  A
C799        O812   1.275       .  A
C799       C1794   1.490       .  S
O800        C813   1.277       .  A
O800       Cd807   2.086   1_556  S
O801        C819   1.274       .  A
O801       Cd810   2.058       .  S
O802        C816   1.274       .  A
O802       Cd806   2.070       .  S
O803        C814   1.276       .  A
O803       Cd806   2.071   1_566  S
Zn804       O815   2.040       .  S
Zn804       O817   2.003   1_545  S
Zn804       O809   1.952       .  S
O805        C816   1.275       .  A
O805       Cd810   2.071       .  S
Cd806       O808   2.057   1_545  S
Cd806       O809   1.998   1_554  S
Cd807       O811   2.111       .  S
Cd807       O820   2.105   1_565  S
Cd807       O809   2.021   1_564  S
O808        C818   1.272       .  A
O809       Cd810   2.001   1_556  S
Cd810       O812   2.083   1_554  S
O811        C818   1.279       .  A
C813        O817   1.273       .  A
C813       C1867   1.478       .  S
C814       C1877   1.487       .  S
C816       C1817   1.476       .  S
C818       C1837   1.485       .  S
C819        O820   1.281       .  A
C819       C1764   1.488       .  S
O821        C837   1.278       .  A
O821       Zn827   2.019       .  S
C822        O838   1.275       .  A
C822        O835   1.275       .  A
C822       C1717   1.480       .  S
O823        C836   1.281       .  A
O823       Cd830   2.096       .  S
O824        C842   1.272       .  A
O824       Cd833   2.037       .  S
O825        C839   1.278       .  A
O825       Cd829   2.079   1_455  S
O826        C837   1.277       .  A
O826       Cd829   2.072       .  S
Zn827       O838   2.029   1_655  S
Zn827       O840   2.005       .  S
Zn827       O832   1.900       .  S
O828        C839   1.277       .  A
O828       Cd833   2.069       .  S
Cd829       O831   2.097       .  S
Cd829       O832   1.980       .  S
Cd830       O834   2.060       .  S
Cd830       O843   2.091   1_655  S
Cd830       O832   1.978       .  S
O831        C841   1.280       .  A
O832       Cd833   1.955   1_655  S
Cd833       O835   2.071       .  S
O834        C841   1.274       .  A
C836        O840   1.275       .  A
C836       C1734   1.492       .  S
C837       C2687   1.474       .  S
C839       C2357   1.488       .  S
C841       C1724   1.481       .  S
C842        O843   1.280       .  A
C842       C1744   1.477       .  S
O844        C860   1.276       .  A
O844       Zn850   2.012       .  S
C845        O861   1.274       .  A
C845        O858   1.275       .  A
C845       C1694   1.490       .  S
O846        C859   1.282       .  A
O846       Cd853   2.100       .  S
O847        C865   1.273       .  A
O847       Cd856   2.043       .  S
O848        C862   1.275       .  A
O848       Cd852   2.055   1_554  S
O849        C860   1.277       .  A
O849       Cd852   2.078       .  S
Zn850       O861   2.016   1_556  S
Zn850       O863   1.995       .  S
Zn850       O855   1.896   1_556  S
O851        C862   1.277       .  A
O851       Cd856   2.067       .  S
Cd852       O854   2.096       .  S
Cd852       O855   1.982   1_556  S
Cd853       O857   2.057       .  S
Cd853       O866   2.103   1_556  S
Cd853       O855   1.979   1_556  S
O854        C864   1.279       .  A
O855       Cd856   1.966       .  S
Cd856       O858   2.077       .  S
O857        C864   1.274       .  A
C859        O863   1.274       .  A
C859       C1704   1.493       .  S
C860       C1684   1.480       .  S
C862       C2337   1.479       .  S
C864       C1787   1.485       .  S
C865        O866   1.282       .  A
C865       C1754   1.485       .  S
O867        C883   1.277       .  A
O867       Zn873   2.008       .  S
C868        O884   1.276       .  A
C868        O881   1.276       .  A
C868       C2544   1.491       .  S
O869        C882   1.282       .  A
O869       Cd876   2.113       .  S
O870        C888   1.275       .  A
O870       Cd879   2.046       .  S
O871        C885   1.276       .  A
O871       Cd875   2.067   1_565  S
O872        C883   1.277       .  A
O872       Cd875   2.063       .  S
Zn873       O884   2.027   1_545  S
Zn873       O886   1.989       .  S
Zn873       O878   1.891       .  S
O874        C885   1.278       .  A
O874       Cd879   2.083       .  S
Cd875       O877   2.093       .  S
Cd875       O878   1.975       .  S
Cd876       O880   2.071       .  S
Cd876       O889   2.103   1_545  S
Cd876       O878   1.980       .  S
O877        C887   1.279       .  A
O878       Cd879   1.963   1_545  S
Cd879       O881   2.084       .  S
O880        C887   1.275       .  A
C882        O886   1.272       .  A
C882       C2577   1.475       .  S
C883       C1654   1.480       .  S
C885       C1887   1.491       .  S
C887       C1664   1.480       .  S
C888        O889   1.283       .  A
C888       C1674   1.484       .  S
C890        C891   1.546       .  S
C890        C896   1.530       .  S
C890        C894   1.540       .  S
C890       C1644   1.538       .  S
C891        H898   1.086       .  S
C891        C892   1.369       .  D
C892        C893   1.540       .  S
C892       C1634   1.486       .  S
C893        C897   1.545       .  S
C893        C895   1.550       .  S
C893        H899   1.108       .  S
C894        H900   1.080       .  S
C894        C895   1.364       .  D
C895       C1667   1.489       .  S
C896        H901   1.086       .  S
C896        C897   1.363       .  D
C897       C1627   1.497       .  S
C902        C903   1.546       .  S
C902        C908   1.527       .  S
C902        C906   1.541       .  S
C902       C1947   1.535       .  S
C903        H910   1.088       .  S
C903        C904   1.372       .  D
C904        C905   1.543       .  S
C904       C1614   1.487       .  S
C905        C909   1.543       .  S
C905        C907   1.547       .  S
C905        H911   1.110       .  S
C906        H912   1.083       .  S
C906        C907   1.368       .  D
C907       C1714   1.495       .  S
C908        H913   1.088       .  S
C908        C909   1.353       .  D
C909       C1937   1.479       .  S
C914        C915   1.553       .  S
C914        C920   1.533       .  S
C914        C918   1.531       .  S
C914       C2827   1.529       .  S
C915        H922   1.063       .  S
C915        C916   1.372       .  D
C916        C917   1.538       .  S
C916       C1607   1.483       .  S
C917        C921   1.539       .  S
C917        C919   1.542       .  S
C917        H923   1.111       .  S
C918        H924   1.087       .  S
C918        C919   1.359       .  D
C919       C1697   1.477       .  S
C920        H925   1.087       .  S
C920        C921   1.358       .  D
C921       C2804   1.480       .  S
C926        C927   1.542       .  S
C926        C932   1.529       .  S
C926        C930   1.546       .  S
C926       C3117   1.534       .  S
C927        H934   1.084       .  S
C927        C928   1.368       .  D
C928        C929   1.546       .  S
C928       C2784   1.497       .  S
C929        C933   1.536       .  S
C929        C931   1.548       .  S
C929        H935   1.107       .  S
C930        H936   1.082       .  S
C930        C931   1.372       .  D
C931       C1594   1.499       .  S
C932        H937   1.087       .  S
C932        C933   1.356       .  D
C933       C1737   1.482       .  S
C938        C939   1.533       .  S
C938        C944   1.535       .  S
C938        C942   1.549       .  S
C938       C2467   1.534       .  S
C939        H946   1.087       .  S
C939        C940   1.359       .  D
C940        C941   1.543       .  S
C940       C1914   1.475       .  S
C941        C945   1.534       .  S
C941        C943   1.545       .  S
C941        H947   1.108       .  S
C942        H948   1.085       .  S
C942        C943   1.374       .  D
C943       C1587   1.500       .  S
C944        H949   1.087       .  S
C944        C945   1.357       .  D
C945       C1677   1.478       .  S
C950        C951   1.536       .  S
C950        C956   1.532       .  S
C950        C954   1.541       .  S
C950       C1577   1.526       .  S
C951        H958   1.084       .  S
C951        C952   1.360       .  D
C952        C953   1.542       .  S
C952       C1554   1.475       .  S
C953        C957   1.542       .  S
C953        C955   1.544       .  S
C953        H959   1.109       .  S
C954        H960   1.087       .  S
C954        C955   1.367       .  D
C955       C1564   1.486       .  S
C956        H961   1.087       .  S
C956        C957   1.361       .  D
C957       C1707   1.490       .  S
O962        C978   1.276       .  A
O962       Zn968   2.039   1_554  S
C963        O979   1.276       .  A
C963        O976   1.276       .  A
C963       C1637   1.483       .  S
O964        C977   1.277       .  A
O964       Cd971   2.081   1_545  S
O965        C983   1.272       .  A
O965       Cd974   2.056       .  S
O966        C980   1.275       .  A
O966       Cd970   2.075   1_465  S
O967        C978   1.275       .  A
O967       Cd970   2.066       .  S
Zn968       O979   2.034   1_655  S
Zn968       O981   2.009       .  S
Zn968       O973   1.953       .  S
O969        C980   1.276       .  A
O969       Cd974   2.072   1_554  S
Cd970       O972   2.057   1_545  S
Cd970       O973   1.997   1_554  S
Cd971       O975   2.097       .  S
Cd971       O984   2.101   1_655  S
Cd971       O973   2.021   1_565  S
O972        C982   1.273       .  A
O973       Cd974   1.996   1_645  S
Cd974       O976   2.080   1_565  S
O975        C982   1.278   1_556  A
C977        O981   1.274       .  A
C977       C1567   1.481       .  S
C978       C1604   1.487       .  S
C980       C1617   1.483       .  S
C982       C1597   1.480       .  S
C983        O984   1.279       .  A
C983       C1584   1.489       .  S
O985       C1001   1.277       .  A
O985       Zn991   2.023       .  S
C986       O1002   1.273       .  A
C986        O999   1.275       .  A
C986       C1534   1.485       .  S
O987       C1000   1.285       .  A
O987       Cd994   2.117       .  S
O988       C1006   1.273       .  A
O988       Cd997   2.037       .  S
O989       C1003   1.278       .  A
O989       Cd993   2.070   1_554  S
O990       C1001   1.277       .  A
O990       Cd993   2.072       .  S
Zn991      O1002   2.018   1_556  S
Zn991      O1004   1.972       .  S
Zn991       O996   1.889       .  S
O992       C1003   1.276       .  A
O992       Cd997   2.059       .  S
Cd993       O995   2.098       .  S
Cd993       O996   1.976       .  S
Cd994       O998   2.064       .  S
Cd994      O1007   2.115   1_556  S
Cd994       O996   1.981       .  S
O995       C1005   1.279       .  A
O996       Cd997   1.955   1_556  S
Cd997       O999   2.076       .  S
O998       C1005   1.274       .  A
C1000      O1004   1.273       .  A
C1000      C1544   1.486       .  S
C1001      C1647   1.488       .  S
C1003      C1827   1.484       .  S
C1005      C2267   1.473       .  S
C1006      O1007   1.284       .  A
C1006      C2177   1.484       .  S
O1008      C1024   1.275       .  A
O1008     Zn1014   2.003       .  S
C1009      O1025   1.272       .  A
C1009      O1022   1.277       .  A
C1009      C2407   1.490       .  S
O1010      C1023   1.284       .  A
O1010     Cd1017   2.113       .  S
O1011      C1029   1.274       .  A
O1011     Cd1020   2.041       .  S
O1012      C1026   1.275       .  A
O1012     Cd1016   2.064       .  S
O1013      C1024   1.277       .  A
O1013     Cd1016   2.077       .  S
Zn1014     O1025   2.013       .  S
Zn1014     O1027   1.966       .  S
Zn1014     O1019   1.894       .  S
O1015      C1026   1.279       .  A
O1015     Cd1020   2.073       .  S
Cd1016     O1018   2.087       .  S
Cd1016     O1019   1.986       .  S
Cd1017     O1021   2.083       .  S
Cd1017     O1030   2.109       .  S
Cd1017     O1019   1.990       .  S
O1018      C1028   1.279       .  A
O1019     Cd1020   1.962       .  S
Cd1020     O1022   2.093       .  S
O1021      C1028   1.277       .  A
C1023      O1027   1.271       .  A
C1023      C2367   1.490       .  S
C1024      C2117   1.481       .  S
C1026      C2214   1.489       .  S
C1028      C1514   1.490       .  S
C1029      O1030   1.283       .  A
C1029      C1524   1.483       .  S
O1031      C1047   1.272       .  A
O1031     Zn1037   2.010   1_655  S
C1032      O1048   1.275       .  A
C1032      O1045   1.278       .  A
C1032      C2597   1.487       .  S
O1033      C1046   1.281       .  A
O1033     Cd1040   2.094       .  S
O1034      C1052   1.282       .  A
O1034     Cd1043   2.116       .  S
O1035      C1049   1.277       .  A
O1035     Cd1039   2.063       .  S
O1036      C1047   1.276       .  A
O1036     Cd1039   2.085       .  S
Zn1037     O1048   1.997       .  S
Zn1037     O1050   1.977       .  S
Zn1037     O1042   1.891   1_455  S
O1038      C1049   1.277       .  A
O1038     Cd1043   2.066   1_655  S
Cd1039     O1041   2.049       .  S
Cd1039     O1042   1.962       .  S
Cd1040     O1044   2.090   1_455  S
Cd1040     O1053   2.066       .  S
Cd1040     O1042   1.968   1_455  S
O1041      C1051   1.274       .  A
O1042     Cd1043   1.979   1_655  S
Cd1043     O1045   2.078       .  S
O1044      C1051   1.281       .  A
C1046      O1050   1.272       .  A
C1046      C1624   1.486       .  S
C1047      C1557   1.494       .  S
C1049      C2384   1.476       .  S
C1051      C1504   1.476       .  S
C1052      O1053   1.275       .  A
C1052      C1494   1.496       .  S
C1054      C1055   1.543       .  S
C1054      C1060   1.526       .  S
C1054      C1058   1.542       .  S
C1054      C1687   1.535       .  S
C1055      H1062   1.082       .  S
C1055      C1056   1.371       .  D
C1056      C1057   1.547       .  S
C1056      C1484   1.493       .  S
C1057      C1061   1.536       .  S
C1057      C1059   1.547       .  S
C1057      H1063   1.106       .  S
C1058      H1064   1.083       .  S
C1058      C1059   1.372       .  D
C1059      C1517   1.502       .  S
C1060      H1065   1.087       .  S
C1060      C1061   1.356       .  D
C1061      C1507   1.481       .  S
C1066      C1067   1.546       .  S
C1066      C1072   1.527       .  S
C1066      C1070   1.546       .  S
C1066      C2147   1.540       .  S
C1067      H1074   1.081       .  S
C1067      C1068   1.376       .  D
C1068      C1069   1.556       .  S
C1068      C1497   1.513       .  S
C1069      C1073   1.542       .  S
C1069      C1071   1.542       .  S
C1069      H1075   1.107       .  S
C1070      H1076   1.083       .  S
C1070      C1071   1.368       .  D
C1071      C1474   1.490       .  S
C1072      H1077   1.088       .  S
C1072      C1073   1.354       .  D
C1073      C1547   1.479       .  S
C1078      C1079   1.544       .  S
C1078      C1084   1.533       .  S
C1078      C1082   1.546       .  S
C1078      C2457   1.538       .  S
C1079      H1086   1.082       .  S
C1079      C1080   1.366       .  D
C1080      C1081   1.545       .  S
C1080      C3147   1.488       .  S
C1081      C1085   1.539       .  S
C1081      C1083   1.540       .  S
C1081      H1087   1.111       .  S
C1082      H1088   1.085       .  S
C1082      C1083   1.369       .  D
C1083      C1464   1.484       .  S
C1084      H1089   1.088       .  S
C1084      C1085   1.356       .  D
C1085      C1527   1.481       .  S
C1090      C1091   1.549       .  S
C1090      C1096   1.528       .  S
C1090      C1094   1.537       .  S
C1090      C2814   1.538       .  S
C1091      H1098   1.093       .  S
C1091      C1092   1.374       .  D
C1092      C1093   1.544       .  S
C1092      C1454   1.496       .  S
C1093      C1097   1.540       .  S
C1093      C1095   1.546       .  S
C1093      H1099   1.109       .  S
C1094      H1100   1.083       .  S
C1094      C1095   1.365       .  D
C1095      C1537   1.488       .  S
C1096      H1101   1.085       .  S
C1096      C1097   1.359       .  D
C1097      C3104   1.485       .  S
C1102      C1103   1.548       .  S
C1102      C1108   1.530       .  S
C1102      C1106   1.540       .  S
C1102      C2874   1.539       .  S
C1103      H1110   1.084       .  S
C1103      C1104   1.372       .  D
C1104      C1105   1.543       .  S
C1104      C1447   1.495       .  S
C1105      C1109   1.539       .  S
C1105      C1107   1.547       .  S
C1105      H1111   1.107       .  S
C1106      H1112   1.082       .  S
C1106      C1107   1.367       .  D
C1107      C1727   1.493       .  S
C1108      H1113   1.086       .  S
C1108      C1109   1.361       .  D
C1109      C3167   1.492       .  S
C1114      C1115   1.542       .  S
C1114      C1120   1.527       .  S
C1114      C1118   1.546       .  S
C1114      C1897   1.532       .  S
C1115      H1122   1.083       .  S
C1115      C1116   1.368       .  D
C1116      C1117   1.545       .  S
C1116      C3074   1.489       .  S
C1117      C1121   1.537       .  S
C1117      C1119   1.536       .  S
C1117      H1123   1.111       .  S
C1118      H1124   1.085       .  S
C1118      C1119   1.367       .  D
C1119      C1437   1.476       .  S
C1120      H1125   1.088       .  S
C1120      C1121   1.358       .  D
C1121      C1747   1.477       .  S
O1126      C1142   1.277       .  A
O1126     Zn1132   2.032   1_455  S
C1127      O1143   1.277       .  A
C1127      O1140   1.276       .  A
C1127      C1467   1.501       .  S
O1128      C1141   1.278       .  A
O1128     Cd1135   2.096       .  S
O1129      C1147   1.274       .  A
O1129     Cd1138   2.057       .  S
O1130      C1144   1.277       .  A
O1130     Cd1134   2.083   1_556  S
O1131      C1142   1.274       .  A
O1131     Cd1134   2.062       .  S
Zn1132     O1143   2.051   1_554  S
Zn1132     O1145   2.022       .  S
Zn1132     O1137   1.954   1_654  S
O1133      C1144   1.276       .  A
O1133     Cd1138   2.083   1_455  S
Cd1134     O1136   2.070       .  S
Cd1134     O1137   2.001   1_554  S
Cd1135     O1139   2.100   1_655  S
Cd1135     O1148   2.092   1_554  S
Cd1135     O1137   2.021   1_654  S
O1136      C1146   1.274       .  A
O1137     Cd1138   2.000   1_455  S
Cd1138     O1140   2.078       .  S
O1139      C1146   1.278       .  A
C1141      O1145   1.275       .  A
C1141      C1444   1.483       .  S
C1142      C1434   1.491       .  S
C1144      C1477   1.493       .  S
C1146      C1457   1.484       .  S
C1147      O1148   1.278       .  A
C1147      C1487   1.476       .  S
O1149      C1165   1.271       .  A
O1149     Zn1155   2.007       .  S
C1150      O1166   1.275       .  A
C1150      O1163   1.278       .  A
C1150      C1847   1.491       .  S
O1151      C1164   1.283       .  A
O1151     Cd1158   2.104       .  S
O1152      C1170   1.281       .  A
O1152     Cd1161   2.105       .  S
O1153      C1167   1.278       .  A
O1153     Cd1157   2.070       .  S
O1154      C1165   1.277       .  A
O1154     Cd1157   2.090       .  S
Zn1155     O1166   2.013       .  S
Zn1155     O1168   1.959       .  S
Zn1155     O1160   1.890       .  S
O1156      C1167   1.277       .  A
O1156     Cd1161   2.054       .  S
Cd1157     O1159   2.050       .  S
Cd1157     O1160   1.963       .  S
Cd1158     O1162   2.109       .  S
Cd1158     O1171   2.069       .  S
Cd1158     O1160   1.979       .  S
O1159      C1169   1.274       .  A
O1160     Cd1161   1.976       .  S
Cd1161     O1163   2.089       .  S
O1162      C1169   1.282       .  A
C1164      O1168   1.271       .  A
C1164      C1424   1.481       .  S
C1165      C1414   1.493       .  S
C1167      C2314   1.481       .  S
C1169      C2127   1.496       .  S
C1170      O1171   1.275       .  A
C1170      C2057   1.489       .  S
O1172      C1188   1.275       .  A
O1172     Zn1178   2.003       .  S
C1173      O1189   1.272       .  A
C1173      O1186   1.277       .  A
C1173      C1394   1.487       .  S
O1174      C1187   1.284       .  A
O1174     Cd1181   2.112       .  S
O1175      C1193   1.274       .  A
O1175     Cd1184   2.048       .  S
O1176      C1190   1.275       .  A
O1176     Cd1180   2.059       .  S
O1177      C1188   1.278       .  A
O1177     Cd1180   2.081       .  S
Zn1178     O1189   2.008       .  S
Zn1178     O1191   1.968       .  S
Zn1178     O1183   1.889       .  S
O1179      C1190   1.278       .  A
O1179     Cd1184   2.069       .  S
Cd1180     O1182   2.096       .  S
Cd1180     O1183   1.981       .  S
Cd1181     O1185   2.072       .  S
Cd1181     O1194   2.108       .  S
Cd1181     O1183   1.978       .  S
O1182      C1192   1.280       .  A
O1183     Cd1184   1.962       .  S
Cd1184     O1186   2.090       .  S
O1185      C1192   1.276       .  A
C1187      O1191   1.270       .  A
C1187      C1404   1.490       .  S
C1188      C1807   1.490       .  S
C1190      C2297   1.479       .  S
C1192      C2097   1.488       .  S
C1193      O1194   1.283       .  A
C1193      C2027   1.484       .  S
O1195      C1211   1.273       .  A
O1195     Zn1201   2.017   1_565  S
C1196      O1212   1.274       .  A
C1196      O1209   1.276       .  A
C1196      C1574   1.474       .  S
O1197      C1210   1.282       .  A
O1197     Cd1204   2.106       .  S
O1198      C1216   1.278       .  A
O1198     Cd1207   2.092       .  S
O1199      C1213   1.278       .  A
O1199     Cd1203   2.075       .  S
O1200      C1211   1.276       .  A
O1200     Cd1203   2.080       .  S
Zn1201     O1212   1.985       .  S
Zn1201     O1214   1.981       .  S
Zn1201     O1206   1.888       .  S
O1202      C1213   1.275       .  A
O1202     Cd1207   2.058   1_565  S
Cd1203     O1205   2.039       .  S
Cd1203     O1206   1.959   1_565  S
Cd1204     O1208   2.102   1_545  S
Cd1204     O1217   2.064       .  S
Cd1204     O1206   1.974       .  S
O1205      C1215   1.274       .  A
O1206     Cd1207   1.979       .  S
Cd1207     O1209   2.066       .  S
O1208      C1215   1.283       .  A
C1210      O1214   1.272       .  A
C1210      C1777   1.483       .  S
C1211      C1857   1.484       .  S
C1213      C2647   1.479       .  S
C1215      C1384   1.480       .  S
C1216      O1217   1.274       .  A
C1216      C1377   1.473       .  S
C1218      C1219   1.544       .  S
C1218      C1224   1.531       .  S
C1218      C1222   1.541       .  S
C1218      C1657   1.530       .  S
C1219      H1226   1.085       .  S
C1219      C1220   1.365       .  D
C1220      C1221   1.537       .  S
C1220      C1367   1.479       .  S
C1221      C1225   1.537       .  S
C1221      C1223   1.545       .  S
C1221      H1227   1.110       .  S
C1222      H1228   1.082       .  S
C1222      C1223   1.367       .  D
C1223      C1397   1.486       .  S
C1224      H1229   1.087       .  S
C1224      C1225   1.359       .  D
C1225      C2977   1.483       .  S
C1230      C1231   1.548       .  S
C1230      C1236   1.528       .  S
C1230      C1234   1.537       .  S
C1230      C1997   1.530       .  S
C1231      H1238   1.082       .  S
C1231      C1232   1.370       .  D
C1232      C1233   1.542       .  S
C1232      C1354   1.486       .  S
C1233      C1237   1.535       .  S
C1233      C1235   1.547       .  S
C1233      H1239   1.110       .  S
C1234      H1240   1.086       .  S
C1234      C1235   1.366       .  D
C1235      C2717   1.490       .  S
C1236      H1241   1.088       .  S
C1236      C1237   1.355       .  D
C1237      C1387   1.475       .  S
C1242      C1243   1.536       .  S
C1242      C1248   1.529       .  S
C1242      C1246   1.548       .  S
C1242      C2494   1.532       .  S
C1243      H1250   1.082       .  S
C1243      C1244   1.361       .  D
C1244      C1245   1.546       .  S
C1244      C1374   1.480       .  S
C1245      C1249   1.543       .  S
C1245      C1247   1.546       .  S
C1245      H1251   1.108       .  S
C1246      H1252   1.085       .  S
C1246      C1247   1.373       .  D
C1247      C1347   1.497       .  S
C1248      H1253   1.087       .  S
C1248      C1249   1.359       .  D
C1249      C1407   1.492       .  S
C1254      C1255   1.545       .  S
C1254      C1260   1.528       .  S
C1254      C1258   1.538       .  S
C1254      C3177   1.533       .  S
C1255      H1262   1.086       .  S
C1255      C1256   1.368       .  D
C1256      C1257   1.542       .  S
C1256      C1334   1.490       .  S
C1257      C1261   1.545       .  S
C1257      C1259   1.553       .  S
C1257      H1263   1.107       .  S
C1258      H1264   1.082       .  S
C1258      C1259   1.366       .  D
C1259      C1967   1.489       .  S
C1260      H1265   1.086       .  S
C1260      C1261   1.359       .  D
C1261      C1427   1.496       .  S
C1266      C1267   1.538       .  S
C1266      C1272   1.529       .  S
C1266      C1270   1.552       .  S
C1266      C2757   1.537       .  S
C1267      H1274   1.085       .  S
C1267      C1268   1.362       .  D
C1268      C1269   1.541       .  S
C1268      C1417   1.481       .  S
C1269      C1273   1.541       .  S
C1269      C1271   1.543       .  S
C1269      H1275   1.109       .  S
C1270      H1276   1.083       .  S
C1270      C1271   1.375       .  D
C1271      C1324   1.496       .  S
C1272      H1277   1.087       .  S
C1272      C1273   1.359       .  D
C1273      C2747   1.487       .  S
C1278      C1279   1.536       .  S
C1278      C1284   1.530       .  S
C1278      C1282   1.550       .  S
C1278      C2997   1.534       .  S
C1279      H1286   1.085       .  S
C1279      C1280   1.361       .  D
C1280      C1281   1.544       .  S
C1280      C2957   1.484       .  S
C1281      C1285   1.537       .  S
C1281      C1283   1.543       .  S
C1281      H1287   1.111       .  S
C1282      H1288   1.084       .  S
C1282      C1283   1.375       .  D
C1283      C1314   1.489       .  S
C1284      H1289   1.088       .  S
C1284      C1285   1.357       .  D
C1285      C1987   1.478       .  S
O1290      C1306   1.277       .  A
O1290     Zn1296   2.039       .  S
C1291      O1307   1.276       .  A
C1291      O1304   1.275       .  A
C1291      C1337   1.488       .  S
O1292      C1305   1.278   1_545  A
O1292     Cd1299   2.095       .  S
O1293      C1311   1.275       .  A
O1293     Cd1302   2.068       .  S
O1294      C1308   1.275       .  A
O1294     Cd1298   2.071       .  S
O1295      C1306   1.275       .  A
O1295     Cd1298   2.066   1_565  S
Zn1296     O1307   2.033       .  S
Zn1296     O1309   2.019       .  S
Zn1296     O1301   1.950   1_565  S
O1297      C1308   1.277       .  A
O1297     Cd1302   2.081       .  S
Cd1298     O1300   2.061       .  S
Cd1298     O1301   1.998       .  S
Cd1299     O1303   2.107       .  S
Cd1299     O1312   2.095       .  S
Cd1299     O1301   2.021       .  S
O1300      C1310   1.274       .  A
O1301     Cd1302   2.003       .  S
Cd1302     O1304   2.077   1_545  S
O1303      C1310   1.279       .  A
C1305      O1309   1.275       .  A
C1305      C1327   1.483       .  S
C1306      C1357   1.486       .  S
C1308      C1364   1.490       .  S
C1310      C1344   1.484       .  S
C1311      O1312   1.278       .  A
C1311      C1317   1.479       .  S
C1313      C1314   1.408       .  A
C1313      C1318   1.404       .  A
C1313      F1320   1.357       .  S
C1314      C1315   1.408       .  A
C1315      C1316   1.399       .  A
C1315      F1322   1.357       .  S
C1316      C1317   1.405       .  A
C1316      F1321   1.358       .  S
C1317      C1318   1.405       .  A
C1318      F1319   1.357       .  S
C1323      C1324   1.410       .  A
C1323      C1328   1.398       .  A
C1323      F1330   1.357       .  S
C1324      C1325   1.411       .  A
C1325      C1326   1.406       .  A
C1325      F1332   1.357       .  S
C1326      C1327   1.407       .  A
C1326      F1331   1.358   1_565  S
C1327      C1328   1.404       .  A
C1328      F1329   1.358       .  S
C1333      C1334   1.407       .  A
C1333      C1338   1.403       .  A
C1333      F1340   1.358       .  S
C1334      C1335   1.407       .  A
C1335      C1336   1.400       .  A
C1335      F1342   1.357       .  S
C1336      C1337   1.409       .  A
C1336      F1341   1.358       .  S
C1337      C1338   1.410       .  A
C1338      F1339   1.358       .  S
C1343      C1344   1.406       .  A
C1343      C1348   1.398       .  A
C1343      F1350   1.358       .  S
C1344      C1345   1.406       .  A
C1345      C1346   1.406       .  A
C1345      F1352   1.358       .  S
C1346      C1347   1.413       .  A
C1346      F1351   1.357       .  S
C1347      C1348   1.409       .  A
C1348      F1349   1.357       .  S
C1353      C1354   1.407       .  A
C1353      C1358   1.404       .  A
C1353      F1360   1.358       .  S
C1354      C1355   1.405       .  A
C1355      C1356   1.397       .  A
C1355      F1362   1.357       .  S
C1356      C1357   1.409       .  A
C1356      F1361   1.358       .  S
C1357      C1358   1.409       .  A
C1358      F1359   1.358       .  S
C1363      C1364   1.411       .  A
C1363      C1368   1.398       .  A
C1363      F1370   1.358       .  S
C1364      C1365   1.413       .  A
C1365      C1366   1.402       .  A
C1365      F1372   1.358       .  S
C1366      C1367   1.402       .  A
C1366      F1371   1.358       .  S
C1367      C1368   1.403       .  A
C1368      F1369   1.357       .  S
C1373      C1374   1.407       .  A
C1373      C1378   1.403       .  A
C1373      F1380   1.358       .  S
C1374      C1375   1.402       .  A
C1375      C1376   1.398       .  A
C1375      F1382   1.356       .  S
C1376      C1377   1.405       .  A
C1376      F1381   1.358       .  S
C1377      C1378   1.405       .  A
C1378      F1379   1.358       .  S
C1383      C1384   1.414       .  A
C1383      C1388   1.398       .  A
C1383      F1390   1.358       .  S
C1384      C1385   1.405       .  A
C1385      C1386   1.397       .  A
C1385      F1392   1.358       .  S
C1386      C1387   1.407       .  A
C1386      F1391   1.358       .  S
C1387      C1388   1.399       .  A
C1388      F1389   1.358       .  S
C1393      C1394   1.413       .  A
C1393      C1398   1.401       .  A
C1393      F1400   1.358       .  S
C1394      C1395   1.406       .  A
C1395      C1396   1.401       .  A
C1395      F1402   1.358       .  S
C1396      C1397   1.408       .  A
C1396      F1401   1.358       .  S
C1397      C1398   1.403       .  A
C1398      F1399   1.358       .  S
C1403      C1404   1.405       .  A
C1403      C1408   1.398       .  A
C1403      F1410   1.358       .  S
C1404      C1405   1.417       .  A
C1405      C1406   1.399       .  A
C1405      F1412   1.358       .  S
C1406      C1407   1.401       .  A
C1406      F1411   1.355       .  S
C1407      C1408   1.414       .  A
C1408      F1409   1.358       .  S
C1413      C1414   1.417       .  A
C1413      C1418   1.403       .  A
C1413      F1420   1.358       .  S
C1414      C1415   1.410       .  A
C1415      C1416   1.400       .  A
C1415      F1422   1.357       .  S
C1416      C1417   1.404       .  A
C1416      F1421   1.358       .  S
C1417      C1418   1.401       .  A
C1418      F1419   1.358       .  S
C1423      C1424   1.412       .  A
C1423      C1428   1.395       .  A
C1423      F1430   1.359       .  S
C1424      C1425   1.402       .  A
C1425      C1426   1.397       .  A
C1425      F1432   1.358       .  S
C1426      C1427   1.418       .  A
C1426      F1431   1.358       .  S
C1427      C1428   1.404       .  A
C1428      F1429   1.353       .  S
C1433      C1434   1.412       .  A
C1433      C1438   1.397       .  A
C1433      F1440   1.358       .  S
C1434      C1435   1.415       .  A
C1435      C1436   1.400       .  A
C1435      F1442   1.358       .  S
C1436      C1437   1.400       .  A
C1436      F1441   1.358       .  S
C1437      C1438   1.402       .  A
C1438      F1439   1.357       .  S
C1443      C1444   1.405       .  A
C1443      C1448   1.398       .  A
C1443      F1450   1.358       .  S
C1444      C1445   1.407       .  A
C1445      C1446   1.406       .  A
C1445      F1452   1.358       .  S
C1446      C1447   1.411       .  A
C1446      F1451   1.358       .  S
C1447      C1448   1.409       .  A
C1448      F1449   1.357       .  S
C1453      C1454   1.410       .  A
C1453      C1458   1.402       .  A
C1453      F1460   1.357       .  S
C1454      C1455   1.410       .  A
C1455      C1456   1.404       .  A
C1455      F1462   1.357       .  S
C1456      C1457   1.405       .  A
C1456      F1461   1.357       .  S
C1457      C1458   1.407       .  A
C1458      F1459   1.358       .  S
C1463      C1464   1.401       .  A
C1463      C1468   1.398       .  A
C1463      F1470   1.357       .  S
C1464      C1465   1.404       .  A
C1465      C1466   1.407       .  A
C1465      F1472   1.358       .  S
C1466      C1467   1.416       .  A
C1466      F1471   1.357       .  S
C1467      C1468   1.414       .  A
C1468      F1469   1.357       .  S
C1473      C1474   1.407       .  A
C1473      C1478   1.404       .  A
C1473      F1480   1.358       .  S
C1474      C1475   1.405       .  A
C1475      C1476   1.400       .  A
C1475      F1482   1.357       .  S
C1476      C1477   1.411       .  A
C1476      F1481   1.358       .  S
C1477      C1478   1.411       .  A
C1478      F1479   1.358       .  S
C1483      C1484   1.413       .  A
C1483      C1488   1.402       .  A
C1483      F1490   1.357       .  S
C1484      C1485   1.408       .  A
C1485      C1486   1.397       .  A
C1485      F1492   1.357       .  S
C1486      C1487   1.405       .  A
C1486      F1491   1.358       .  S
C1487      C1488   1.403       .  A
C1488      F1489   1.358       .  S
C1493      C1494   1.407       .  A
C1493      C1498   1.407       .  A
C1493      F1500   1.358       .  S
C1494      C1495   1.410       .  A
C1495      C1496   1.401       .  A
C1495      F1502   1.358       .  S
C1496      C1497   1.411       .  A
C1496      F1501   1.353       .  S
C1497      C1498   1.418       .  A
C1498      F1499   1.357       .  S
C1503      C1504   1.403       .  A
C1503      C1508   1.395       .  A
C1503      F1510   1.358       .  S
C1504      C1505   1.411       .  A
C1505      C1506   1.401       .  A
C1505      F1512   1.358       .  S
C1506      C1507   1.403       .  A
C1506      F1511   1.358       .  S
C1507      C1508   1.409       .  A
C1508      F1509   1.358       .  S
C1513      C1514   1.410       .  A
C1513      C1518   1.403       .  A
C1513      F1520   1.358       .  S
C1514      C1515   1.406       .  A
C1515      C1516   1.401       .  A
C1515      F1522   1.358       .  S
C1516      C1517   1.413       .  A
C1516      F1521   1.357       .  S
C1517      C1518   1.411       .  A
C1518      F1519   1.357       .  S
C1523      C1524   1.413       .  A
C1523      C1528   1.397       .  A
C1523      F1530   1.358       .  S
C1524      C1525   1.405       .  A
C1525      C1526   1.401       .  A
C1525      F1532   1.358       .  S
C1526      C1527   1.411       .  A
C1526      F1531   1.358       .  S
C1527      C1528   1.399       .  A
C1528      F1529   1.358       .  S
C1533      C1534   1.412       .  A
C1533      C1538   1.403       .  A
C1533      F1540   1.358       .  S
C1534      C1535   1.406       .  A
C1535      C1536   1.399       .  A
C1535      F1542   1.358       .  S
C1536      C1537   1.409       .  A
C1536      F1541   1.358       .  S
C1537      C1538   1.404       .  A
C1538      F1539   1.358       .  S
C1543      C1544   1.407       .  A
C1543      C1548   1.403       .  A
C1543      F1550   1.357       .  S
C1544      C1545   1.414       .  A
C1545      C1546   1.395       .  A
C1545      F1552   1.358       .  S
C1546      C1547   1.398       .  A
C1546      F1551   1.355       .  S
C1547      C1548   1.408       .  A
C1548      F1549   1.358       .  S
C1553      C1554   1.400       .  A
C1553      C1558   1.400       .  A
C1553      F1560   1.358       .  S
C1554      C1555   1.401       .  A
C1555      C1556   1.400       .  A
C1555      F1562   1.358       .  S
C1556      C1557   1.413       .  A
C1556      F1561   1.357       .  S
C1557      C1558   1.415       .  A
C1558      F1559   1.358       .  S
C1563      C1564   1.404       .  A
C1563      C1568   1.397       .  A
C1563      F1570   1.357       .  S
C1564      C1565   1.410       .  A
C1565      C1566   1.400       .  A
C1565      F1572   1.358       .  S
C1566      C1567   1.407       .  A
C1566      F1571   1.358       .  S
C1567      C1568   1.408       .  A
C1568      F1569   1.358       .  S
C1573      C1574   1.404       .  A
C1573      C1578   1.391       .  A
C1573      F1580   1.359       .  S
C1574      C1575   1.402       .  A
C1575      C1576   1.396       .  A
C1575      F1582   1.358       .  S
C1576      C1577   1.419       .  A
C1576      F1581   1.355       .  S
C1577      C1578   1.415       .  A
C1578      F1579   1.357       .  S
C1583      C1584   1.411       .  A
C1583      C1588   1.400       .  A
C1583      F1590   1.358       .  S
C1584      C1585   1.405       .  A
C1585      C1586   1.401       .  A
C1585      F1592   1.358       .  S
C1586      C1587   1.414       .  A
C1586      F1591   1.357       .  S
C1587      C1588   1.409       .  A
C1588      F1589   1.356       .  S
C1593      C1594   1.410       .  A
C1593      C1598   1.396       .  A
C1593      F1600   1.357       .  S
C1594      C1595   1.415       .  A
C1595      C1596   1.405       .  A
C1595      F1602   1.357       .  S
C1596      C1597   1.404       .  A
C1596      F1601   1.358       .  S
C1597      C1598   1.404       .  A
C1598      F1599   1.358       .  S
C1603      C1604   1.411       .  A
C1603      C1608   1.404       .  A
C1603      F1610   1.358       .  S
C1604      C1605   1.409       .  A
C1605      C1606   1.396       .  A
C1605      F1612   1.358       .  S
C1606      C1607   1.403       .  A
C1606      F1611   1.357       .  S
C1607      C1608   1.405       .  A
C1608      F1609   1.358       .  S
C1613      C1614   1.405       .  A
C1613      C1618   1.397       .  A
C1613      F1620   1.357       .  S
C1614      C1615   1.408       .  A
C1615      C1616   1.403       .  A
C1615      F1622   1.358       .  S
C1616      C1617   1.408       .  A
C1616      F1621   1.358       .  S
C1617      C1618   1.408       .  A
C1618      F1619   1.358       .  S
C1623      C1624   1.404       .  A
C1623      C1628   1.397       .  A
C1623      F1630   1.358       .  S
C1624      C1625   1.413       .  A
C1625      C1626   1.397       .  A
C1625      F1632   1.358       .  S
C1626      C1627   1.405       .  A
C1626      F1631   1.352       .  S
C1627      C1628   1.415       .  A
C1628      F1629   1.358       .  S
C1633      C1634   1.405       .  A
C1633      C1638   1.402       .  A
C1633      F1640   1.358       .  S
C1634      C1635   1.407       .  A
C1635      C1636   1.402       .  A
C1635      F1642   1.358       .  S
C1636      C1637   1.407       .  A
C1636      F1641   1.358       .  S
C1637      C1638   1.409       .  A
C1638      F1639   1.358       .  S
C1643      C1644   1.417       .  A
C1643      C1648   1.398       .  A
C1643      F1650   1.358       .  S
C1644      C1645   1.419       .  A
C1645      C1646   1.399       .  A
C1645      F1652   1.353       .  S
C1646      C1647   1.405       .  A
C1646      F1651   1.358       .  S
C1647      C1648   1.406       .  A
C1648      F1649   1.358       .  S
C1653      C1654   1.405       .  A
C1653      C1658   1.397       .  A
C1653      F1660   1.358       .  S
C1654      C1655   1.404       .  A
C1655      C1656   1.394       .  A
C1655      F1662   1.358       .  S
C1656      C1657   1.417       .  A
C1656      F1661   1.357       .  S
C1657      C1658   1.417       .  A
C1658      F1659   1.354       .  S
C1663      C1664   1.406       .  A
C1663      C1668   1.400       .  A
C1663      F1670   1.358       .  S
C1664      C1665   1.406       .  A
C1665      C1666   1.404       .  A
C1665      F1672   1.358       .  S
C1666      C1667   1.409       .  A
C1666      F1671   1.358       .  S
C1667      C1668   1.404       .  A
C1668      F1669   1.353       .  S
C1673      C1674   1.414       .  A
C1673      C1678   1.398       .  A
C1673      F1680   1.358       .  S
C1674      C1675   1.406       .  A
C1675      C1676   1.398       .  A
C1675      F1682   1.357       .  S
C1676      C1677   1.407       .  A
C1676      F1681   1.358       .  S
C1677      C1678   1.400       .  A
C1678      F1679   1.358       .  S
C1683      C1684   1.402       .  A
C1683      C1688   1.399       .  A
C1683      F1690   1.358       .  S
C1684      C1685   1.404       .  A
C1685      C1686   1.397       .  A
C1685      F1692   1.359       .  S
C1686      C1687   1.418       .  A
C1686      F1691   1.356       .  S
C1687      C1688   1.419       .  A
C1688      F1689   1.356       .  S
C1693      C1694   1.414       .  A
C1693      C1698   1.400       .  A
C1693      F1700   1.358       .  S
C1694      C1695   1.411       .  A
C1695      C1696   1.400       .  A
C1695      F1702   1.358       .  S
C1696      C1697   1.404       .  A
C1696      F1701   1.358       .  S
C1697      C1698   1.400       .  A
C1698      F1699   1.358       .  S
C1703      C1704   1.415       .  A
C1703      C1708   1.398       .  A
C1703      F1710   1.358       .  S
C1704      C1705   1.409       .  A
C1705      C1706   1.400       .  A
C1705      F1712   1.358       .  S
C1706      C1707   1.411       .  A
C1706      F1711   1.358       .  S
C1707      C1708   1.403       .  A
C1708      F1709   1.357       .  S
C1713      C1714   1.406       .  A
C1713      C1718   1.401       .  A
C1713      F1720   1.352       .  S
C1714      C1715   1.412       .  A
C1715      C1716   1.401       .  A
C1715      F1722   1.358       .  S
C1716      C1717   1.404       .  A
C1716      F1721   1.358       .  S
C1717      C1718   1.406       .  A
C1718      F1719   1.358       .  S
C1723      C1724   1.403       .  A
C1723      C1728   1.401       .  A
C1723      F1730   1.358       .  S
C1724      C1725   1.409       .  A
C1725      C1726   1.401       .  A
C1725      F1732   1.358       .  S
C1726      C1727   1.406       .  A
C1726      F1731   1.357       .  S
C1727      C1728   1.413       .  A
C1728      F1729   1.358       .  S
C1733      C1734   1.416       .  A
C1733      C1738   1.399       .  A
C1733      F1740   1.357       .  S
C1734      C1735   1.410       .  A
C1735      C1736   1.399       .  A
C1735      F1742   1.358       .  S
C1736      C1737   1.408       .  A
C1736      F1741   1.358       .  S
C1737      C1738   1.399       .  A
C1738      F1739   1.358       .  S
C1743      C1744   1.412       .  A
C1743      C1748   1.396       .  A
C1743      F1750   1.358       .  S
C1744      C1745   1.404       .  A
C1745      C1746   1.397       .  A
C1745      F1752   1.358       .  S
C1746      C1747   1.409       .  A
C1746      F1751   1.358       .  S
C1747      C1748   1.399       .  A
C1748      F1749   1.358       .  S
C1753      C1754   1.410       .  A
C1753      C1758   1.405       .  A
C1753      F1760   1.357       .  S
C1754      C1755   1.411       .  A
C1755      C1756   1.393       .  A
C1755      F1762   1.358       .  S
C1756      C1757   1.401       .  A
C1756      F1761   1.359       .  S
C1757      C1758   1.404       .  A
C1758      F1759   1.358       .  S
C1763      C1764   1.406       .  A
C1763      C1768   1.402       .  A
C1763      F1770   1.358       .  S
C1764      C1765   1.411       .  A
C1765      C1766   1.400       .  A
C1765      F1772   1.358       .  S
C1766      C1767   1.405       .  A
C1766      F1771   1.357       .  S
C1767      C1768   1.413       .  A
C1768      F1769   1.358       .  S
C1773      C1774   1.406       .  A
C1773      C1778   1.401       .  A
C1773      F1780   1.358       .  S
C1774      C1775   1.399       .  A
C1775      C1776   1.397       .  A
C1775      F1782   1.356       .  S
C1776      C1777   1.413       .  A
C1776      F1781   1.358       .  S
C1777      C1778   1.406       .  A
C1778      F1779   1.357       .  S
C1783      C1784   1.408       .  A
C1783      C1788   1.398       .  A
C1783      F1790   1.353       .  S
C1784      C1785   1.416       .  A
C1785      C1786   1.403       .  A
C1785      F1792   1.358       .  S
C1786      C1787   1.405       .  A
C1786      F1791   1.358       .  S
C1787      C1788   1.408       .  A
C1788      F1789   1.358       .  S
C1793      C1794   1.409       .  A
C1793      C1798   1.404       .  A
C1793      F1800   1.357       .  S
C1794      C1795   1.409       .  A
C1795      C1796   1.402       .  A
C1795      F1802   1.358       .  S
C1796      C1797   1.408       .  A
C1796      F1801   1.357       .  S
C1797      C1798   1.407       .  A
C1798      F1799   1.358       .  S
C1803      C1804   1.417       .  A
C1803      C1808   1.402       .  A
C1803      F1810   1.352       .  S
C1804      C1805   1.414       .  A
C1805      C1806   1.394       .  A
C1805      F1812   1.359       .  S
C1806      C1807   1.408       .  A
C1806      F1811   1.358       .  S
C1807      C1808   1.409       .  A
C1808      F1809   1.358       .  S
C1813      C1814   1.403       .  A
C1813      C1818   1.401       .  A
C1813      F1820   1.358       .  S
C1814      C1815   1.407       .  A
C1815      C1816   1.396       .  A
C1815      F1822   1.358       .  S
C1816      C1817   1.404       .  A
C1816      F1821   1.358       .  S
C1817      C1818   1.409       .  A
C1818      F1819   1.358       .  S
C1823      C1824   1.415       .  A
C1823      C1828   1.394       .  A
C1823      F1830   1.359       .  S
C1824      C1825   1.418       .  A
C1825      C1826   1.397       .  A
C1825      F1832   1.351       .  S
C1826      C1827   1.406       .  A
C1826      F1831   1.359   1_554  S
C1827      C1828   1.405       .  A
C1828      F1829   1.358       .  S
C1833      C1834   1.412       .  A
C1833      C1838   1.406       .  A
C1833      F1840   1.357       .  S
C1834      C1835   1.409       .  A
C1835      C1836   1.400       .  A
C1835      F1842   1.357       .  S
C1836      C1837   1.407       .  A
C1836      F1841   1.358       .  S
C1837      C1838   1.405       .  A
C1838      F1839   1.358       .  S
C1843      C1844   1.415       .  A
C1843      C1848   1.399       .  A
C1843      F1850   1.357       .  S
C1844      C1845   1.420       .  A
C1845      C1846   1.401       .  A
C1845      F1852   1.354       .  S
C1846      C1847   1.405       .  A
C1846      F1851   1.358       .  S
C1847      C1848   1.407       .  A
C1848      F1849   1.358       .  S
C1853      C1854   1.407       .  A
C1853      C1858   1.402       .  A
C1853      F1860   1.358       .  S
C1854      C1855   1.404       .  A
C1855      C1856   1.401       .  A
C1855      F1862   1.355       .  S
C1856      C1857   1.408       .  A
C1856      F1861   1.358       .  S
C1857      C1858   1.408       .  A
C1858      F1859   1.358       .  S
C1863      C1864   1.404       .  A
C1863      C1868   1.399       .  A
C1863      F1870   1.358       .  S
C1864      C1865   1.408       .  A
C1865      C1866   1.399       .  A
C1865      F1872   1.358       .  S
C1866      C1867   1.405       .  A
C1866      F1871   1.358       .  S
C1867      C1868   1.408       .  A
C1868      F1869   1.358       .  S
C1873      C1874   1.406       .  A
C1873      C1878   1.399       .  A
C1873      F1880   1.357       .  S
C1874      C1875   1.406       .  A
C1875      C1876   1.402       .  A
C1875      F1882   1.358       .  S
C1876      C1877   1.409       .  A
C1876      F1881   1.357       .  S
C1877      C1878   1.410       .  A
C1878      F1879   1.358       .  S
C1883      C1884   1.416       .  A
C1883      C1888   1.400       .  A
C1883      F1890   1.351       .  S
C1884      C1885   1.417       .  A
C1885      C1886   1.398       .  A
C1885      F1892   1.358       .  S
C1886      C1887   1.405       .  A
C1886      F1891   1.358       .  S
C1887      C1888   1.410       .  A
C1888      F1889   1.358   1_565  S
C1893      C1894   1.405       .  A
C1893      C1898   1.398       .  A
C1893      F1900   1.359       .  S
C1894      C1895   1.403       .  A
C1895      C1896   1.398       .  A
C1895      F1902   1.358       .  S
C1896      C1897   1.417       .  A
C1896      F1901   1.356       .  S
C1897      C1898   1.417       .  A
C1898      F1899   1.357       .  S
C1903      C1904   1.414       .  A
C1903      C1908   1.402       .  A
C1903      F1910   1.358       .  S
C1904      C1905   1.407       .  A
C1905      C1906   1.400       .  A
C1905      F1912   1.357       .  S
C1906      C1907   1.410       .  A
C1906      F1911   1.358       .  S
C1907      C1908   1.404       .  A
C1908      F1909   1.358       .  S
C1913      C1914   1.398       .  A
C1913      C1918   1.395       .  A
C1913      F1920   1.357       .  S
C1914      C1915   1.404       .  A
C1915      C1916   1.403       .  A
C1915      F1922   1.358       .  S
C1916      C1917   1.414       .  A
C1916      F1921   1.358       .  S
C1917      C1918   1.413       .  A
C1918      F1919   1.358       .  S
C1923      C1924   1.405       .  A
C1923      C1928   1.398       .  A
C1923      F1930   1.357       .  S
C1924      C1925   1.414       .  A
C1925      C1926   1.396       .  A
C1925      F1932   1.358       .  S
C1926      C1927   1.398       .  A
C1926      F1931   1.358       .  S
C1927      C1928   1.407       .  A
C1928      F1929   1.358       .  S
C1933      C1934   1.411       .  A
C1933      C1938   1.394       .  A
C1933      F1940   1.358       .  S
C1934      C1935   1.406       .  A
C1935      C1936   1.404       .  A
C1935      F1942   1.358       .  S
C1936      C1937   1.410       .  A
C1936      F1941   1.358       .  S
C1937      C1938   1.397       .  A
C1938      F1939   1.354       .  S
C1943      C1944   1.404       .  A
C1943      C1948   1.398       .  A
C1943      F1950   1.358       .  S
C1944      C1945   1.407       .  A
C1945      C1946   1.398       .  A
C1945      F1952   1.358       .  S
C1946      C1947   1.416       .  A
C1946      F1951   1.357       .  S
C1947      C1948   1.419       .  A
C1948      F1949   1.355       .  S
C1953      C1954   1.407       .  A
C1953      C1958   1.400       .  A
C1953      F1960   1.358       .  S
C1954      C1955   1.406       .  A
C1955      C1956   1.403       .  A
C1955      F1962   1.356       .  S
C1956      C1957   1.409       .  A
C1956      F1961   1.358       .  S
C1957      C1958   1.406       .  A
C1958      F1959   1.358       .  S
C1963      C1964   1.405       .  A
C1963      C1968   1.404       .  A
C1963      F1970   1.358       .  S
C1964      C1965   1.407       .  A
C1965      C1966   1.401       .  A
C1965      F1972   1.358       .  S
C1966      C1967   1.404       .  A
C1966      F1971   1.353       .  S
C1967      C1968   1.409       .  A
C1968      F1969   1.358       .  S
C1973      C1974   1.417       .  A
C1973      C1978   1.401       .  A
C1973      F1980   1.358       .  S
C1974      C1975   1.408       .  A
C1975      C1976   1.399       .  A
C1975      F1982   1.357       .  S
C1976      C1977   1.406       .  A
C1976      F1981   1.358       .  S
C1977      C1978   1.399       .  A
C1978      F1979   1.358       .  S
C1983      C1984   1.417       .  A
C1983      C1988   1.398       .  A
C1983      F1990   1.358       .  S
C1984      C1985   1.407       .  A
C1985      C1986   1.402       .  A
C1985      F1992   1.357       .  S
C1986      C1987   1.408       .  A
C1986      F1991   1.358       .  S
C1987      C1988   1.397       .  A
C1988      F1989   1.358       .  S
C1993      C1994   1.409       .  A
C1993      C1998   1.396       .  A
C1993      F2000   1.358       .  S
C1994      C1995   1.406       .  A
C1995      C1996   1.396       .  A
C1995      F2002   1.358       .  S
C1996      C1997   1.418       .  A
C1996      F2001   1.358       .  S
C1997      C1998   1.414       .  A
C1998      F1999   1.355       .  S
C2003      C2004   1.406       .  A
C2003      C2008   1.404       .  A
C2003      F2010   1.358       .  S
C2004      C2005   1.407       .  A
C2005      C2006   1.399       .  A
C2005      F2012   1.358       .  S
C2006      C2007   1.409       .  A
C2006      F2011   1.357       .  S
C2007      C2008   1.413       .  A
C2008      F2009   1.357       .  S
C2013      C2014   1.411       .  A
C2013      C2018   1.404       .  A
C2013      F2020   1.358       .  S
C2014      C2015   1.417       .  A
C2015      C2016   1.388       .  A
C2015      F2022   1.358       .  S
C2016      C2017   1.394       .  A
C2016      F2021   1.357       .  S
C2017      C2018   1.405       .  A
C2018      F2019   1.358       .  S
C2023      C2024   1.400       .  A
C2023      C2028   1.399       .  A
C2023      F2030   1.358       .  S
C2024      C2025   1.409       .  A
C2025      C2026   1.400       .  A
C2025      F2032   1.358       .  S
C2026      C2027   1.405       .  A
C2026      F2031   1.357       .  S
C2027      C2028   1.413       .  A
C2028      F2029   1.358       .  S
C2033      C2034   1.406       .  A
C2033      C2038   1.402       .  A
C2033      F2040   1.358       .  S
C2034      C2035   1.406       .  A
C2035      C2036   1.399       .  A
C2035      F2042   1.357       .  S
C2036      C2037   1.408       .  A
C2036      F2041   1.358       .  S
C2037      C2038   1.410       .  A
C2038      F2039   1.358       .  S
C2043      C2044   1.403       .  A
C2043      C2048   1.399       .  A
C2043      F2050   1.358       .  S
C2044      C2045   1.406       .  A
C2045      C2046   1.400       .  A
C2045      F2052   1.358       .  S
C2046      C2047   1.407       .  A
C2046      F2051   1.358       .  S
C2047      C2048   1.407       .  A
C2048      F2049   1.358       .  S
C2053      C2054   1.409       .  A
C2053      C2058   1.401       .  A
C2053      F2060   1.357       .  S
C2054      C2055   1.414       .  A
C2055      C2056   1.405       .  A
C2055      F2062   1.357       .  S
C2056      C2057   1.405       .  A
C2056      F2061   1.358       .  S
C2057      C2058   1.409       .  A
C2058      F2059   1.358       .  S
C2063      C2064   1.405       .  A
C2063      C2068   1.401       .  A
C2063      F2070   1.358       .  S
C2064      C2065   1.406       .  A
C2065      C2066   1.399       .  A
C2065      F2072   1.357       .  S
C2066      C2067   1.409       .  A
C2066      F2071   1.358       .  S
C2067      C2068   1.409       .  A
C2068      F2069   1.358       .  S
C2073      C2074   1.403       .  A
C2073      C2078   1.399       .  A
C2073      F2080   1.358       .  S
C2074      C2075   1.410       .  A
C2075      C2076   1.400       .  A
C2075      F2082   1.358       .  S
C2076      C2077   1.405       .  A
C2076      F2081   1.358       .  S
C2077      C2078   1.410       .  A
C2078      F2079   1.358       .  S
C2083      C2084   1.401       .  A
C2083      C2088   1.396       .  A
C2083      F2090   1.359       .  S
C2084      C2085   1.399       .  A
C2085      C2086   1.394       .  A
C2085      F2092   1.358       .  S
C2086      C2087   1.418       .  A
C2086      F2091   1.358       .  S
C2087      C2088   1.419       .  A
C2088      F2089   1.354       .  S
C2093      C2094   1.415       .  A
C2093      C2098   1.403       .  A
C2093      F2100   1.357       .  S
C2094      C2095   1.410       .  A
C2095      C2096   1.400       .  A
C2095      F2102   1.357       .  S
C2096      C2097   1.409       .  A
C2096      F2101   1.358       .  S
C2097      C2098   1.405       .  A
C2098      F2099   1.358       .  S
C2103      C2104   1.406       .  A
C2103      C2108   1.403       .  A
C2103      F2110   1.358       .  S
C2104      C2105   1.406       .  A
C2105      C2106   1.399       .  A
C2105      F2112   1.358       .  S
C2106      C2107   1.410       .  A
C2106      F2111   1.357       .  S
C2107      C2108   1.412       .  A
C2108      F2109   1.357       .  S
C2113      C2114   1.420       .  A
C2113      C2118   1.399       .  A
C2113      F2120   1.357       .  S
C2114      C2115   1.416       .  A
C2115      C2116   1.396       .  A
C2115      F2122   1.355       .  S
C2116      C2117   1.405       .  A
C2116      F2121   1.358       .  S
C2117      C2118   1.402       .  A
C2118      F2119   1.358       .  S
C2123      C2124   1.404       .  A
C2123      C2128   1.403       .  A
C2123      F2130   1.357       .  S
C2124      C2125   1.399       .  A
C2125      C2126   1.397       .  A
C2125      F2132   1.358       .  S
C2126      C2127   1.417       .  A
C2126      F2131   1.358       .  S
C2127      C2128   1.412       .  A
C2128      F2129   1.357       .  S
C2133      C2134   1.405       .  A
C2133      C2138   1.406       .  A
C2133      F2140   1.358       .  S
C2134      C2135   1.405       .  A
C2135      C2136   1.394       .  A
C2135      F2142   1.359       .  S
C2136      C2137   1.409       .  A
C2136      F2141   1.355       .  S
C2137      C2138   1.416       .  A
C2138      F2139   1.357       .  S
C2143      C2144   1.407       .  A
C2143      C2148   1.399       .  A
C2143      F2150   1.358       .  S
C2144      C2145   1.407       .  A
C2145      C2146   1.402       .  A
C2145      F2152   1.358       .  S
C2146      C2147   1.418       .  A
C2146      F2151   1.356       .  S
C2147      C2148   1.418       .  A
C2148      F2149   1.356       .  S
C2153      C2154   1.412       .  A
C2153      C2158   1.400       .  A
C2153      F2160   1.358       .  S
C2154      C2155   1.406       .  A
C2155      C2156   1.400       .  A
C2155      F2162   1.358       .  S
C2156      C2157   1.409       .  A
C2156      F2161   1.358       .  S
C2157      C2158   1.402       .  A
C2158      F2159   1.358       .  S
C2163      C2164   1.405       .  A
C2163      C2168   1.405       .  A
C2163      F2170   1.357       .  S
C2164      C2165   1.401       .  A
C2165      C2166   1.395       .  A
C2165      F2172   1.358       .  S
C2166      C2167   1.408       .  A
C2166      F2171   1.358       .  S
C2167      C2168   1.407       .  A
C2168      F2169   1.357       .  S
C2173      C2174   1.401       .  A
C2173      C2178   1.393       .  A
C2173      F2180   1.359       .  S
C2174      C2175   1.405       .  A
C2175      C2176   1.406       .  A
C2175      F2182   1.357       .  S
C2176      C2177   1.409       .  A
C2176      F2181   1.357       .  S
C2177      C2178   1.411       .  A
C2178      F2179   1.358       .  S
C2183      C2184   1.411       .  A
C2183      C2188   1.404       .  A
C2183      F2190   1.358       .  S
C2184      C2185   1.406       .  A
C2185      C2186   1.399       .  A
C2185      F2192   1.358       .  S
C2186      C2187   1.406       .  A
C2186      F2191   1.358       .  S
C2187      C2188   1.404       .  A
C2188      F2189   1.358       .  S
C2193      C2194   1.401       .  A
C2193      C2198   1.401       .  A
C2193      F2200   1.358       .  S
C2194      C2195   1.402       .  A
C2195      C2196   1.403       .  A
C2195      F2202   1.357       .  S
C2196      C2197   1.414       .  A
C2196      F2201   1.358       .  S
C2197      C2198   1.414       .  A
C2198      F2199   1.357       .  S
C2203      C2204   1.410       .  A
C2203      C2208   1.398       .  A
C2203      F2210   1.358       .  S
C2204      C2205   1.409       .  A
C2205      C2206   1.402       .  A
C2205      F2212   1.357       .  S
C2206      C2207   1.409       .  A
C2206      F2211   1.358       .  S
C2207      C2208   1.407       .  A
C2208      F2209   1.358       .  S
C2213      C2214   1.404       .  A
C2213      C2218   1.393       .  A
C2213      F2220   1.358       .  S
C2214      C2215   1.411       .  A
C2215      C2216   1.402       .  A
C2215      F2222   1.359       .  S
C2216      C2217   1.416       .  A
C2216      F2221   1.353       .  S
C2217      C2218   1.415       .  A
C2218      F2219   1.358       .  S
C2223      C2224   1.399       .  A
C2223      C2228   1.396       .  A
C2223      F2230   1.358       .  S
C2224      C2225   1.404       .  A
C2225      C2226   1.399       .  A
C2225      F2232   1.357       .  S
C2226      C2227   1.404       .  A
C2226      F2231   1.357       .  S
C2227      C2228   1.411       .  A
C2228      F2229   1.359       .  S
C2233      C2234   1.409       .  A
C2233      C2238   1.398       .  A
C2233      F2240   1.355       .  S
C2234      C2235   1.415       .  A
C2235      C2236   1.405       .  A
C2235      F2242   1.357       .  S
C2236      C2237   1.405       .  A
C2236      F2241   1.358       .  S
C2237      C2238   1.409       .  A
C2238      F2239   1.358       .  S
C2243      C2244   1.410       .  A
C2243      C2248   1.400       .  A
C2243      F2250   1.358       .  S
C2244      C2245   1.402       .  A
C2245      C2246   1.396       .  A
C2245      F2252   1.358       .  S
C2246      C2247   1.406       .  A
C2246      F2251   1.358       .  S
C2247      C2248   1.404       .  A
C2248      F2249   1.358       .  S
C2253      C2254   1.415       .  A
C2253      C2258   1.396       .  A
C2253      F2260   1.352       .  S
C2254      C2255   1.413       .  A
C2255      C2256   1.393       .  A
C2255      F2262   1.359       .  S
C2256      C2257   1.406       .  A
C2256      F2261   1.358       .  S
C2257      C2258   1.406       .  A
C2258      F2259   1.358       .  S
C2263      C2264   1.403       .  A
C2263      C2268   1.399       .  A
C2263      F2270   1.355       .  S
C2264      C2265   1.407       .  A
C2265      C2266   1.403       .  A
C2265      F2272   1.358       .  S
C2266      C2267   1.404       .  A
C2266      F2271   1.358       .  S
C2267      C2268   1.405       .  A
C2268      F2269   1.358       .  S
C2273      C2274   1.405       .  A
C2273      C2278   1.400       .  A
C2273      F2280   1.358       .  S
C2274      C2275   1.398       .  A
C2275      C2276   1.397       .  A
C2275      F2282   1.358       .  S
C2276      C2277   1.415       .  A
C2276      F2281   1.358       .  S
C2277      C2278   1.408       .  A
C2278      F2279   1.357       .  S
C2283      C2284   1.407       .  A
C2283      C2288   1.396       .  A
C2283      F2290   1.354       .  S
C2284      C2285   1.414       .  A
C2285      C2286   1.404       .  A
C2285      F2292   1.358       .  S
C2286      C2287   1.406       .  A
C2286      F2291   1.358       .  S
C2287      C2288   1.408       .  A
C2288      F2289   1.358       .  S
C2293      C2294   1.419       .  A
C2293      C2298   1.397       .  A
C2293      F2300   1.354       .  S
C2294      C2295   1.415       .  A
C2295      C2296   1.395       .  A
C2295      F2302   1.358       .  S
C2296      C2297   1.404       .  A
C2296      F2301   1.358       .  S
C2297      C2298   1.403       .  A
C2298      F2299   1.358       .  S
C2303      C2304   1.401       .  A
C2303      C2308   1.397       .  A
C2303      F2310   1.358       .  S
C2304      C2305   1.401       .  A
C2305      C2306   1.403       .  A
C2305      F2312   1.358       .  S
C2306      C2307   1.414       .  A
C2306      F2311   1.358       .  S
C2307      C2308   1.410       .  A
C2308      F2309   1.358       .  S
C2313      C2314   1.406       .  A
C2313      C2318   1.393       .  A
C2313      F2320   1.359       .  S
C2314      C2315   1.403       .  A
C2315      C2316   1.397       .  A
C2315      F2322   1.358       .  S
C2316      C2317   1.418       .  A
C2316      F2321   1.358       .  S
C2317      C2318   1.415       .  A
C2318      F2319   1.351       .  S
C2323      C2324   1.406       .  A
C2323      C2328   1.395       .  A
C2323      F2330   1.357       .  S
C2324      C2325   1.411       .  A
C2325      C2326   1.404       .  A
C2325      F2332   1.358       .  S
C2326      C2327   1.404       .  A
C2326      F2331   1.358       .  S
C2327      C2328   1.404       .  A
C2328      F2329   1.358       .  S
C2333      C2334   1.418       .  A
C2333      C2338   1.394       .  A
C2333      F2340   1.359       .  S
C2334      C2335   1.414       .  A
C2335      C2336   1.397       .  A
C2335      F2342   1.351       .  S
C2336      C2337   1.407       .  A
C2336      F2341   1.358   1_554  S
C2337      C2338   1.402       .  A
C2338      F2339   1.358       .  S
C2343      C2344   1.408       .  A
C2343      C2348   1.403       .  A
C2343      F2350   1.358       .  S
C2344      C2345   1.406       .  A
C2345      C2346   1.400       .  A
C2345      F2352   1.357       .  S
C2346      C2347   1.410       .  A
C2346      F2351   1.358       .  S
C2347      C2348   1.408       .  A
C2348      F2349   1.358       .  S
C2353      C2354   1.417       .  A
C2353      C2358   1.397       .  A
C2353      F2360   1.359       .  S
C2354      C2355   1.415       .  A
C2355      C2356   1.401       .  A
C2355      F2362   1.352       .  S
C2356      C2357   1.408       .  A
C2356      F2361   1.358   1_455  S
C2357      C2358   1.406       .  A
C2358      F2359   1.358       .  S
C2363      C2364   1.413       .  A
C2363      C2368   1.401       .  A
C2363      F2370   1.358       .  S
C2364      C2365   1.400       .  A
C2365      C2366   1.394       .  A
C2365      F2372   1.355       .  S
C2366      C2367   1.417       .  A
C2366      F2371   1.358       .  S
C2367      C2368   1.407       .  A
C2368      F2369   1.358       .  S
C2373      C2374   1.405       .  A
C2373      C2378   1.401       .  A
C2373      F2380   1.358       .  S
C2374      C2375   1.410       .  A
C2375      C2376   1.403       .  A
C2375      F2382   1.358       .  S
C2376      C2377   1.408       .  A
C2376      F2381   1.358       .  S
C2377      C2378   1.412       .  A
C2378      F2379   1.358       .  S
C2383      C2384   1.406       .  A
C2383      C2388   1.399       .  A
C2383      F2390   1.358       .  S
C2384      C2385   1.402       .  A
C2385      C2386   1.393       .  A
C2385      F2392   1.358       .  S
C2386      C2387   1.417       .  A
C2386      F2391   1.359       .  S
C2387      C2388   1.413       .  A
C2388      F2389   1.353       .  S
C2393      C2394   1.404       .  A
C2393      C2398   1.397       .  A
C2393      F2400   1.358       .  S
C2394      C2395   1.401       .  A
C2395      C2396   1.399       .  A
C2395      F2402   1.355       .  S
C2396      C2397   1.409       .  A
C2396      F2401   1.358       .  S
C2397      C2398   1.407       .  A
C2398      F2399   1.358       .  S
C2403      C2404   1.403       .  A
C2403      C2408   1.402       .  A
C2403      F2410   1.358       .  S
C2404      C2405   1.403       .  A
C2405      C2406   1.402       .  A
C2405      F2412   1.358       .  S
C2406      C2407   1.412       .  A
C2406      F2411   1.358       .  S
C2407      C2408   1.411       .  A
C2408      F2409   1.358       .  S
C2413      C2414   1.405       .  A
C2413      C2418   1.404       .  A
C2413      F2420   1.358       .  S
C2414      C2415   1.406       .  A
C2415      C2416   1.400       .  A
C2415      F2422   1.358       .  S
C2416      C2417   1.407       .  A
C2416      F2421   1.358       .  S
C2417      C2418   1.410       .  A
C2418      F2419   1.358       .  S
C2423      C2424   1.406       .  A
C2423      C2428   1.403       .  A
C2423      F2430   1.358       .  S
C2424      C2425   1.411       .  A
C2425      C2426   1.399       .  A
C2425      F2432   1.358       .  S
C2426      C2427   1.403       .  A
C2426      F2431   1.358       .  S
C2427      C2428   1.412       .  A
C2428      F2429   1.358       .  S
C2433      C2434   1.406       .  A
C2433      C2438   1.399       .  A
C2433      F2440   1.359       .  S
C2434      C2435   1.404       .  A
C2435      C2436   1.403       .  A
C2435      F2442   1.358       .  S
C2436      C2437   1.413       .  A
C2436      F2441   1.357       .  S
C2437      C2438   1.410       .  A
C2438      F2439   1.356       .  S
C2443      C2444   1.413       .  A
C2443      C2448   1.394       .  A
C2443      F2450   1.359       .  S
C2444      C2445   1.414       .  A
C2445      C2446   1.399       .  A
C2445      F2452   1.354       .  S
C2446      C2447   1.408       .  A
C2446      F2451   1.358       .  S
C2447      C2448   1.409       .  A
C2448      F2449   1.358       .  S
C2453      C2454   1.407       .  A
C2453      C2458   1.396       .  A
C2453      F2460   1.358       .  S
C2454      C2455   1.408       .  A
C2455      C2456   1.400       .  A
C2455      F2462   1.358       .  S
C2456      C2457   1.418       .  A
C2456      F2461   1.352       .  S
C2457      C2458   1.415       .  A
C2458      F2459   1.358       .  S
C2463      C2464   1.402       .  A
C2463      C2468   1.392       .  A
C2463      F2470   1.358       .  S
C2464      C2465   1.409       .  A
C2465      C2466   1.400       .  A
C2465      F2472   1.359   1_455  S
C2466      C2467   1.415       .  A
C2466      F2471   1.352       .  S
C2467      C2468   1.416       .  A
C2468      F2469   1.359       .  S
C2473      C2474   1.406       .  A
C2473      C2478   1.402       .  A
C2473      F2480   1.356       .  S
C2474      C2475   1.409       .  A
C2475      C2476   1.400       .  A
C2475      F2482   1.358       .  S
C2476      C2477   1.405       .  A
C2476      F2481   1.358       .  S
C2477      C2478   1.408       .  A
C2478      F2479   1.358       .  S
C2483      C2484   1.402       .  A
C2483      C2488   1.395       .  A
C2483      F2490   1.358       .  S
C2484      C2485   1.403       .  A
C2485      C2486   1.402       .  A
C2485      F2492   1.357       .  S
C2486      C2487   1.406       .  A
C2486      F2491   1.357       .  S
C2487      C2488   1.406       .  A
C2488      F2489   1.358       .  S
C2493      C2494   1.419       .  A
C2493      C2498   1.399       .  A
C2493      F2500   1.354       .  S
C2494      C2495   1.414       .  A
C2495      C2496   1.393       .  A
C2495      F2502   1.358       .  S
C2496      C2497   1.406       .  A
C2496      F2501   1.358       .  S
C2497      C2498   1.405       .  A
C2498      F2499   1.358       .  S
C2503      C2504   1.409       .  A
C2503      C2508   1.404       .  A
C2503      F2510   1.358       .  S
C2504      C2505   1.409       .  A
C2505      C2506   1.403       .  A
C2505      F2512   1.358       .  S
C2506      C2507   1.405       .  A
C2506      F2511   1.357       .  S
C2507      C2508   1.408       .  A
C2508      F2509   1.358       .  S
C2513      C2514   1.406       .  A
C2513      C2518   1.402       .  A
C2513      F2520   1.358       .  S
C2514      C2515   1.404       .  A
C2515      C2516   1.401       .  A
C2515      F2522   1.358       .  S
C2516      C2517   1.405       .  A
C2516      F2521   1.358       .  S
C2517      C2518   1.404       .  A
C2518      F2519   1.356       .  S
C2523      C2524   1.404       .  A
C2523      C2528   1.396       .  A
C2523      F2530   1.358       .  S
C2524      C2525   1.398       .  A
C2525      C2526   1.397       .  A
C2525      F2532   1.358       .  S
C2526      C2527   1.415       .  A
C2526      F2531   1.358       .  S
C2527      C2528   1.407       .  A
C2528      F2529   1.358       .  S
C2533      C2534   1.403       .  A
C2533      C2538   1.400       .  A
C2533      F2540   1.358       .  S
C2534      C2535   1.410       .  A
C2535      C2536   1.399       .  A
C2535      F2542   1.358       .  S
C2536      C2537   1.401       .  A
C2536      F2541   1.356       .  S
C2537      C2538   1.412       .  A
C2538      F2539   1.358       .  S
C2543      C2544   1.413       .  A
C2543      C2548   1.401       .  A
C2543      F2550   1.358       .  S
C2544      C2545   1.410       .  A
C2545      C2546   1.402       .  A
C2545      F2552   1.358       .  S
C2546      C2547   1.405       .  A
C2546      F2551   1.358       .  S
C2547      C2548   1.402       .  A
C2548      F2549   1.358       .  S
C2553      C2554   1.402       .  A
C2553      C2558   1.396       .  A
C2553      F2560   1.357       .  S
C2554      C2555   1.412       .  A
C2555      C2556   1.401       .  A
C2555      F2562   1.358       .  S
C2556      C2557   1.405       .  A
C2556      F2561   1.358       .  S
C2557      C2558   1.410       .  A
C2558      F2559   1.358       .  S
C2563      C2564   1.404       .  A
C2563      C2568   1.402       .  A
C2563      F2570   1.358       .  S
C2564      C2565   1.403       .  A
C2565      C2566   1.395       .  A
C2565      F2572   1.357       .  S
C2566      C2567   1.410       .  A
C2566      F2571   1.358       .  S
C2567      C2568   1.413       .  A
C2568      F2569   1.358       .  S
C2573      C2574   1.402       .  A
C2573      C2578   1.397       .  A
C2573      F2580   1.358       .  S
C2574      C2575   1.406       .  A
C2575      C2576   1.405       .  A
C2575      F2582   1.358       .  S
C2576      C2577   1.405       .  A
C2576      F2581   1.357       .  S
C2577      C2578   1.407       .  A
C2578      F2579   1.358       .  S
C2583      C2584   1.410       .  A
C2583      C2588   1.401       .  A
C2583      F2590   1.357       .  S
C2584      C2585   1.406       .  A
C2585      C2586   1.399       .  A
C2585      F2592   1.358       .  S
C2586      C2587   1.410       .  A
C2586      F2591   1.358       .  S
C2587      C2588   1.406       .  A
C2588      F2589   1.358       .  S
C2593      C2594   1.414       .  A
C2593      C2598   1.393       .  A
C2593      F2600   1.359       .  S
C2594      C2595   1.417       .  A
C2595      C2596   1.399       .  A
C2595      F2602   1.351       .  S
C2596      C2597   1.407       .  A
C2596      F2601   1.358       .  S
C2597      C2598   1.408       .  A
C2598      F2599   1.358       .  S
C2603      C2604   1.401       .  A
C2603      C2608   1.401       .  A
C2603      F2610   1.357       .  S
C2604      C2605   1.402       .  A
C2605      C2606   1.398       .  A
C2605      F2612   1.358       .  S
C2606      C2607   1.411       .  A
C2606      F2611   1.358       .  S
C2607      C2608   1.412       .  A
C2608      F2609   1.358       .  S
C2613      C2614   1.404       .  A
C2613      C2618   1.397       .  A
C2613      F2620   1.358       .  S
C2614      C2615   1.408       .  A
C2615      C2616   1.400       .  A
C2615      F2622   1.359       .  S
C2616      C2617   1.417       .  A
C2616      F2621   1.351       .  S
C2617      C2618   1.417       .  A
C2618      F2619   1.359       .  S
C2623      C2624   1.412       .  A
C2623      C2628   1.400       .  A
C2623      F2630   1.354       .  S
C2624      C2625   1.415       .  A
C2625      C2626   1.400       .  A
C2625      F2632   1.357       .  S
C2626      C2627   1.405       .  A
C2626      F2631   1.358       .  S
C2627      C2628   1.408       .  A
C2628      F2629   1.358       .  S
C2633      C2634   1.404       .  A
C2633      C2638   1.396       .  A
C2633      F2640   1.358       .  S
C2634      C2635   1.405       .  A
C2635      C2636   1.404       .  A
C2635      F2642   1.358   1_565  S
C2636      C2637   1.411       .  A
C2636      F2641   1.357       .  S
C2637      C2638   1.408       .  A
C2638      F2639   1.357       .  S
C2643      C2644   1.412       .  A
C2643      C2648   1.398       .  A
C2643      F2650   1.354       .  S
C2644      C2645   1.417       .  A
C2645      C2646   1.396       .  A
C2645      F2652   1.359       .  S
C2646      C2647   1.403       .  A
C2646      F2651   1.358       .  S
C2647      C2648   1.408       .  A
C2648      F2649   1.358   1_565  S
C2653      C2654   1.411       .  A
C2653      C2658   1.403       .  A
C2653      F2660   1.357       .  S
C2654      C2655   1.409       .  A
C2655      C2656   1.397       .  A
C2655      F2662   1.357       .  S
C2656      C2657   1.405       .  A
C2656      F2661   1.359       .  S
C2657      C2658   1.404       .  A
C2658      F2659   1.358       .  S
C2663      C2664   1.417       .  A
C2663      C2668   1.395       .  A
C2663      F2670   1.359       .  S
C2664      C2665   1.413       .  A
C2665      C2666   1.400       .  A
C2665      F2672   1.353       .  S
C2666      C2667   1.409       .  A
C2666      F2671   1.358       .  S
C2667      C2668   1.402       .  A
C2668      F2669   1.358       .  S
C2673      C2674   1.409       .  A
C2673      C2678   1.400       .  A
C2673      F2680   1.357       .  S
C2674      C2675   1.408       .  A
C2675      C2676   1.402       .  A
C2675      F2682   1.357       .  S
C2676      C2677   1.409       .  A
C2676      F2681   1.358       .  S
C2677      C2678   1.407       .  A
C2678      F2679   1.358       .  S
C2683      C2684   1.417       .  A
C2683      C2688   1.397       .  A
C2683      F2690   1.353       .  S
C2684      C2685   1.421       .  A
C2685      C2686   1.398       .  A
C2685      F2692   1.358       .  S
C2686      C2687   1.399       .  A
C2686      F2691   1.358       .  S
C2687      C2688   1.401       .  A
C2688      F2689   1.358       .  S
C2693      C2694   1.403       .  A
C2693      C2698   1.395       .  A
C2693      F2700   1.358       .  S
C2694      C2695   1.405       .  A
C2695      C2696   1.399       .  A
C2695      F2702   1.358       .  S
C2696      C2697   1.419       .  A
C2696      F2701   1.355       .  S
C2697      C2698   1.418       .  A
C2698      F2699   1.357       .  S
C2703      C2704   1.416       .  A
C2703      C2708   1.399       .  A
C2703      F2710   1.356       .  S
C2704      C2705   1.417       .  A
C2705      C2706   1.397       .  A
C2705      F2712   1.357       .  S
C2706      C2707   1.406       .  A
C2706      F2711   1.358       .  S
C2707      C2708   1.409       .  A
C2708      F2709   1.358       .  S
C2713      C2714   1.410       .  A
C2713      C2718   1.401       .  A
C2713      F2720   1.358       .  S
C2714      C2715   1.406       .  A
C2715      C2716   1.401       .  A
C2715      F2722   1.358       .  S
C2716      C2717   1.411       .  A
C2716      F2721   1.358       .  S
C2717      C2718   1.405       .  A
C2718      F2719   1.357       .  S
C2723      C2724   1.408       .  A
C2723      C2728   1.400       .  A
C2723      F2730   1.358       .  S
C2724      C2725   1.403       .  A
C2725      C2726   1.399       .  A
C2725      F2732   1.358       .  S
C2726      C2727   1.410       .  A
C2726      F2731   1.358       .  S
C2727      C2728   1.406       .  A
C2728      F2729   1.358       .  S
C2733      C2734   1.415       .  A
C2733      C2738   1.394       .  A
C2733      F2740   1.358       .  S
C2734      C2735   1.409       .  A
C2735      C2736   1.401       .  A
C2735      F2742   1.357       .  S
C2736      C2737   1.405       .  A
C2736      F2741   1.358       .  S
C2737      C2738   1.397       .  A
C2738      F2739   1.356       .  S
C2743      C2744   1.417       .  A
C2743      C2748   1.401       .  A
C2743      F2750   1.358       .  S
C2744      C2745   1.408       .  A
C2745      C2746   1.397       .  A
C2745      F2752   1.358       .  S
C2746      C2747   1.410       .  A
C2746      F2751   1.358       .  S
C2747      C2748   1.401       .  A
C2748      F2749   1.358       .  S
C2753      C2754   1.406       .  A
C2753      C2758   1.401       .  A
C2753      F2760   1.358   1_565  S
C2754      C2755   1.402       .  A
C2755      C2756   1.397       .  A
C2755      F2762   1.358       .  S
C2756      C2757   1.421       .  A
C2756      F2761   1.356       .  S
C2757      C2758   1.417       .  A
C2758      F2759   1.356       .  S
C2763      C2764   1.416       .  A
C2763      C2768   1.395       .  A
C2763      F2770   1.355       .  S
C2764      C2765   1.417       .  A
C2765      C2766   1.396       .  A
C2765      F2772   1.357       .  S
C2766      C2767   1.405       .  A
C2766      F2771   1.358       .  S
C2767      C2768   1.409       .  A
C2768      F2769   1.359       .  S
C2773      C2774   1.401       .  A
C2773      C2778   1.401       .  A
C2773      F2780   1.358       .  S
C2774      C2775   1.407       .  A
C2775      C2776   1.403       .  A
C2775      F2782   1.358       .  S
C2776      C2777   1.410       .  A
C2776      F2781   1.357       .  S
C2777      C2778   1.415       .  A
C2778      F2779   1.358       .  S
C2783      C2784   1.407       .  A
C2783      C2788   1.401       .  A
C2783      F2790   1.357       .  S
C2784      C2785   1.413       .  A
C2785      C2786   1.404       .  A
C2785      F2792   1.358       .  S
C2786      C2787   1.406       .  A
C2786      F2791   1.358       .  S
C2787      C2788   1.410       .  A
C2788      F2789   1.358       .  S
C2793      C2794   1.399       .  A
C2793      C2798   1.396       .  A
C2793      F2800   1.358       .  S
C2794      C2795   1.408       .  A
C2795      C2796   1.397       .  A
C2795      F2802   1.358       .  S
C2796      C2797   1.407       .  A
C2796      F2801   1.358       .  S
C2797      C2798   1.417       .  A
C2798      F2799   1.358       .  S
C2803      C2804   1.399       .  A
C2803      C2808   1.400       .  A
C2803      F2810   1.358       .  S
C2804      C2805   1.409       .  A
C2805      C2806   1.398       .  A
C2805      F2812   1.358       .  S
C2806      C2807   1.405       .  A
C2806      F2811   1.358       .  S
C2807      C2808   1.415       .  A
C2808      F2809   1.358       .  S
C2813      C2814   1.416       .  A
C2813      C2818   1.399       .  A
C2813      F2820   1.356       .  S
C2814      C2815   1.421       .  A
C2815      C2816   1.400       .  A
C2815      F2822   1.356       .  S
C2816      C2817   1.404       .  A
C2816      F2821   1.358       .  S
C2817      C2818   1.407       .  A
C2818      F2819   1.358       .  S
C2823      C2824   1.403       .  A
C2823      C2828   1.391       .  A
C2823      F2830   1.359       .  S
C2824      C2825   1.407       .  A
C2825      C2826   1.398       .  A
C2825      F2832   1.358   1_655  S
C2826      C2827   1.413       .  A
C2826      F2831   1.352       .  S
C2827      C2828   1.417       .  A
C2828      F2829   1.359       .  S
C2833      C2834   1.411       .  A
C2833      C2838   1.401       .  A
C2833      F2840   1.355       .  S
C2834      C2835   1.417       .  A
C2835      C2836   1.407       .  A
C2835      F2842   1.357       .  S
C2836      C2837   1.405       .  A
C2836      F2841   1.357       .  S
C2837      C2838   1.410       .  A
C2838      F2839   1.358       .  S
C2843      C2844   1.402       .  A
C2843      C2848   1.400       .  A
C2843      F2850   1.357       .  S
C2844      C2845   1.402       .  A
C2845      C2846   1.403       .  A
C2845      F2852   1.357       .  S
C2846      C2847   1.414       .  A
C2846      F2851   1.358       .  S
C2847      C2848   1.413       .  A
C2848      F2849   1.358       .  S
C2853      C2854   1.399       .  A
C2853      C2858   1.398       .  A
C2853      F2860   1.358       .  S
C2854      C2855   1.406       .  A
C2855      C2856   1.397       .  A
C2855      F2862   1.358       .  S
C2856      C2857   1.407       .  A
C2856      F2861   1.358       .  S
C2857      C2858   1.414       .  A
C2858      F2859   1.358       .  S
C2863      C2864   1.404       .  A
C2863      C2868   1.398       .  A
C2863      F2870   1.358       .  S
C2864      C2865   1.408       .  A
C2865      C2866   1.393       .  A
C2865      F2872   1.359       .  S
C2866      C2867   1.399       .  A
C2866      F2871   1.357       .  S
C2867      C2868   1.404       .  A
C2868      F2869   1.358       .  S
C2873      C2874   1.419       .  A
C2873      C2878   1.400       .  A
C2873      F2880   1.354       .  S
C2874      C2875   1.417       .  A
C2875      C2876   1.400       .  A
C2875      F2882   1.357       .  S
C2876      C2877   1.406       .  A
C2876      F2881   1.358       .  S
C2877      C2878   1.405       .  A
C2878      F2879   1.358       .  S
C2883      C2884   1.405       .  A
C2883      C2888   1.395       .  A
C2883      F2890   1.358       .  S
C2884      C2885   1.409       .  A
C2885      C2886   1.394       .  A
C2885      F2892   1.359       .  S
C2886      C2887   1.415       .  A
C2886      F2891   1.357       .  S
C2887      C2888   1.416       .  A
C2888      F2889   1.356       .  S
C2893      C2894   1.412       .  A
C2893      C2898   1.402       .  A
C2893      F2900   1.358       .  S
C2894      C2895   1.406       .  A
C2895      C2896   1.401       .  A
C2895      F2902   1.358       .  S
C2896      C2897   1.410       .  A
C2896      F2901   1.358       .  S
C2897      C2898   1.405       .  A
C2898      F2899   1.358       .  S
C2903      C2904   1.406       .  A
C2903      C2908   1.399       .  A
C2903      F2910   1.358       .  S
C2904      C2905   1.407       .  A
C2905      C2906   1.404       .  A
C2905      F2912   1.358       .  S
C2906      C2907   1.412       .  A
C2906      F2911   1.357       .  S
C2907      C2908   1.409       .  A
C2908      F2909   1.356       .  S
C2913      C2914   1.417       .  A
C2913      C2918   1.400       .  A
C2913      F2920   1.358       .  S
C2914      C2915   1.405       .  A
C2915      C2916   1.396       .  A
C2915      F2922   1.353       .  S
C2916      C2917   1.413       .  A
C2916      F2921   1.358       .  S
C2917      C2918   1.404       .  A
C2918      F2919   1.358       .  S
C2923      C2924   1.411       .  A
C2923      C2928   1.405       .  A
C2923      F2930   1.357       .  S
C2924      C2925   1.417       .  A
C2925      C2926   1.393       .  A
C2925      F2932   1.358       .  S
C2926      C2927   1.397       .  A
C2926      F2931   1.359       .  S
C2927      C2928   1.404       .  A
C2928      F2929   1.358       .  S
C2933      C2934   1.416       .  A
C2933      C2938   1.399       .  A
C2933      F2940   1.356       .  S
C2934      C2935   1.420       .  A
C2935      C2936   1.395       .  A
C2935      F2942   1.356       .  S
C2936      C2937   1.401       .  A
C2936      F2941   1.358       .  S
C2937      C2938   1.405       .  A
C2938      F2939   1.358       .  S
C2943      C2944   1.407       .  A
C2943      C2948   1.398       .  A
C2943      F2950   1.358       .  S
C2944      C2945   1.408       .  A
C2945      C2946   1.392       .  A
C2945      F2952   1.359       .  S
C2946      C2947   1.415       .  A
C2946      F2951   1.356       .  S
C2947      C2948   1.416       .  A
C2948      F2949   1.357       .  S
C2953      C2954   1.413       .  A
C2953      C2958   1.402       .  A
C2953      F2960   1.358       .  S
C2954      C2955   1.406       .  A
C2955      C2956   1.399       .  A
C2955      F2962   1.358       .  S
C2956      C2957   1.408       .  A
C2956      F2961   1.358       .  S
C2957      C2958   1.403       .  A
C2958      F2959   1.358       .  S
C2963      C2964   1.405       .  A
C2963      C2968   1.402       .  A
C2963      F2970   1.358       .  S
C2964      C2965   1.409       .  A
C2965      C2966   1.399       .  A
C2965      F2972   1.358       .  S
C2966      C2967   1.404       .  A
C2966      F2971   1.357       .  S
C2967      C2968   1.411       .  A
C2968      F2969   1.358       .  S
C2973      C2974   1.414       .  A
C2973      C2978   1.397       .  A
C2973      F2980   1.358       .  S
C2974      C2975   1.408       .  A
C2975      C2976   1.396       .  A
C2975      F2982   1.358       .  S
C2976      C2977   1.409       .  A
C2976      F2981   1.358       .  S
C2977      C2978   1.402       .  A
C2978      F2979   1.358       .  S
C2983      C2984   1.404       .  A
C2983      C2988   1.398       .  A
C2983      F2990   1.358       .  S
C2984      C2985   1.411       .  A
C2985      C2986   1.397       .  A
C2985      F2992   1.358       .  S
C2986      C2987   1.400       .  A
C2986      F2991   1.358       .  S
C2987      C2988   1.409       .  A
C2988      F2989   1.358       .  S
C2993      C2994   1.406       .  A
C2993      C2998   1.400       .  A
C2993      F3000   1.358       .  S
C2994      C2995   1.400       .  A
C2995      C2996   1.396       .  A
C2995      F3002   1.358       .  S
C2996      C2997   1.422       .  A
C2996      F3001   1.357       .  S
C2997      C2998   1.415       .  A
C2998      F2999   1.355       .  S
C3003      C3004   1.405       .  A
C3003      C3008   1.400       .  A
C3003      F3010   1.358       .  S
C3004      C3005   1.409       .  A
C3005      C3006   1.397       .  A
C3005      F3012   1.358       .  S
C3006      C3007   1.415       .  A
C3006      F3011   1.355       .  S
C3007      C3008   1.419       .  A
C3008      F3009   1.357       .  S
C3013      C3014   1.412       .  A
C3013      C3018   1.406       .  A
C3013      F3020   1.357       .  S
C3014      C3015   1.412       .  A
C3015      C3016   1.402       .  A
C3015      F3022   1.358       .  S
C3016      C3017   1.403       .  A
C3016      F3021   1.358       .  S
C3017      C3018   1.404       .  A
C3018      F3019   1.358       .  S
C3023      C3024   1.408       .  A
C3023      C3028   1.401       .  A
C3023      F3030   1.357       .  S
C3024      C3025   1.414       .  A
C3025      C3026   1.405       .  A
C3025      F3032   1.357       .  S
C3026      C3027   1.407       .  A
C3026      F3031   1.358       .  S
C3027      C3028   1.409       .  A
C3028      F3029   1.358       .  S
C3033      C3034   1.405       .  A
C3033      C3038   1.397       .  A
C3033      F3040   1.358       .  S
C3034      C3035   1.411       .  A
C3035      C3036   1.399       .  A
C3035      F3042   1.358       .  S
C3036      C3037   1.401       .  A
C3036      F3041   1.358       .  S
C3037      C3038   1.409       .  A
C3038      F3039   1.358       .  S
C3043      C3044   1.406       .  A
C3043      C3048   1.394       .  A
C3043      F3050   1.358       .  S
C3044      C3045   1.404       .  A
C3045      C3046   1.402       .  A
C3045      F3052   1.358       .  S
C3046      C3047   1.406       .  A
C3046      F3051   1.358       .  S
C3047      C3048   1.400       .  A
C3048      F3049   1.357       .  S
C3053      C3054   1.406       .  A
C3053      C3058   1.396       .  A
C3053      F3060   1.358       .  S
C3054      C3055   1.409       .  A
C3055      C3056   1.401       .  A
C3055      F3062   1.358       .  S
C3056      C3057   1.415       .  A
C3056      F3061   1.352       .  S
C3057      C3058   1.417       .  A
C3058      F3059   1.359       .  S
C3063      C3064   1.419       .  A
C3063      C3068   1.398       .  A
C3063      F3070   1.358       .  S
C3064      C3065   1.420       .  A
C3065      C3066   1.400       .  A
C3065      F3072   1.352       .  S
C3066      C3067   1.402       .  A
C3066      F3071   1.359       .  S
C3067      C3068   1.400       .  A
C3068      F3069   1.358       .  S
C3073      C3074   1.404       .  A
C3073      C3078   1.404       .  A
C3073      F3080   1.358       .  S
C3074      C3075   1.407       .  A
C3075      C3076   1.403       .  A
C3075      F3082   1.358       .  S
C3076      C3077   1.409       .  A
C3076      F3081   1.358       .  S
C3077      C3078   1.413       .  A
C3078      F3079   1.358       .  S
C3083      C3084   1.414       .  A
C3083      C3088   1.404       .  A
C3083      F3090   1.357       .  S
C3084      C3085   1.408       .  A
C3085      C3086   1.401       .  A
C3085      F3092   1.355       .  S
C3086      C3087   1.410       .  A
C3086      F3091   1.358       .  S
C3087      C3088   1.407       .  A
C3088      F3089   1.358       .  S
C3093      C3094   1.413       .  A
C3093      C3098   1.400       .  A
C3093      F3100   1.358       .  S
C3094      C3095   1.405       .  A
C3095      C3096   1.400       .  A
C3095      F3102   1.358       .  S
C3096      C3097   1.410       .  A
C3096      F3101   1.358       .  S
C3097      C3098   1.400       .  A
C3098      F3099   1.358       .  S
C3103      C3104   1.409       .  A
C3103      C3108   1.397       .  A
C3103      F3110   1.358       .  S
C3104      C3105   1.401       .  A
C3105      C3106   1.401       .  A
C3105      F3112   1.358       .  S
C3106      C3107   1.418       .  A
C3106      F3111   1.358       .  S
C3107      C3108   1.407       .  A
C3108      F3109   1.357       .  S
C3113      C3114   1.402       .  A
C3113      C3118   1.398       .  A
C3113      F3120   1.358       .  S
C3114      C3115   1.403       .  A
C3115      C3116   1.397       .  A
C3115      F3122   1.358       .  S
C3116      C3117   1.418       .  A
C3116      F3121   1.355       .  S
C3117      C3118   1.420       .  A
C3118      F3119   1.356       .  S
C3123      C3124   1.406       .  A
C3123      C3128   1.396       .  A
C3123      F3130   1.358       .  S
C3124      C3125   1.404       .  A
C3125      C3126   1.395       .  A
C3125      F3132   1.358       .  S
C3126      C3127   1.417       .  A
C3126      F3131   1.355       .  S
C3127      C3128   1.417       .  A
C3128      F3129   1.357       .  S
C3133      C3134   1.404       .  A
C3133      C3138   1.400       .  A
C3133      F3140   1.358       .  S
C3134      C3135   1.406       .  A
C3135      C3136   1.401       .  A
C3135      F3142   1.358       .  S
C3136      C3137   1.404       .  A
C3136      F3141   1.355       .  S
C3137      C3138   1.407       .  A
C3138      F3139   1.358       .  S
C3143      C3144   1.411       .  A
C3143      C3148   1.400       .  A
C3143      F3150   1.358       .  S
C3144      C3145   1.409       .  A
C3145      C3146   1.403       .  A
C3145      F3152   1.358       .  S
C3146      C3147   1.409       .  A
C3146      F3151   1.358       .  S
C3147      C3148   1.403       .  A
C3148      F3149   1.357       .  S
C3153      C3154   1.407       .  A
C3153      C3158   1.401       .  A
C3153      F3160   1.358       .  S
C3154      C3155   1.414       .  A
C3155      C3156   1.397       .  A
C3155      F3162   1.358       .  S
C3156      C3157   1.399       .  A
C3156      F3161   1.356       .  S
C3157      C3158   1.408       .  A
C3158      F3159   1.358       .  S
C3163      C3164   1.415       .  A
C3163      C3168   1.402       .  A
C3163      F3170   1.358       .  S
C3164      C3165   1.407       .  A
C3165      C3166   1.396       .  A
C3165      F3172   1.358       .  S
C3166      C3167   1.411       .  A
C3166      F3171   1.358       .  S
C3167      C3168   1.405       .  A
C3168      F3169   1.357       .  S
C3173      C3174   1.408       .  A
C3173      C3178   1.400       .  A
C3173      F3180   1.358       .  S
C3174      C3175   1.406       .  A
C3175      C3176   1.393       .  A
C3175      F3182   1.358       .  S
C3176      C3177   1.416       .  A
C3176      F3181   1.359       .  S
C3177      C3178   1.417       .  A
C3178      F3179   1.353       .  S
C3183      C3184   1.409       .  A
C3183      C3188   1.399       .  A
C3183      F3190   1.358       .  S
C3184      C3185   1.406       .  A
C3185      C3186   1.395       .  A
C3185      F3192   1.358       .  S
C3186      C3187   1.417       .  A
C3186      F3191   1.357       .  S
C3187      C3188   1.416       .  A
C3188      F3189   1.355       .  S
C3193      C3194   1.411       .  A
C3193      C3198   1.403       .  A
C3193      F3200   1.358       .  S
C3194      C3195   1.406       .  A
C3195      C3196   1.405       .  A
C3195      F3202   1.358       .  S
C3196      C3197   1.416       .  A
C3196      F3201   1.357       .  S
C3197      C3198   1.410       .  A
C3198      F3199   1.357       .  S
C3203      C3204   1.411       .  A
C3203      C3208   1.406       .  A
C3203      F3210   1.358       .  S
C3204      C3205   1.408       .  A
C3205      C3206   1.403       .  A
C3205      F3212   1.358       .  S
C3206      C3207   1.407       .  A
C3206      F3211   1.358       .  S
C3207      C3208   1.405       .  A
C3208      F3209   1.358       .  S
C3213      C3214   1.397       .  A
C3213      C3218   1.392       .  A
C3213      F3220   1.358       .  S
C3214      C3215   1.405       .  A
C3215      C3216   1.401       .  A
C3215      F3222   1.357       .  S
C3216      C3217   1.409       .  A
C3216      F3221   1.358       .  S
C3217      C3218   1.416       .  A
C3218      F3219   1.358       .  S
C3223      C3224   1.417       .  A
C3223      C3228   1.396       .  A
C3223      F3230   1.358       .  S
C3224      C3225   1.407       .  A
C3225      C3226   1.398       .  A
C3225      F3232   1.358       .  S
C3226      C3227   1.408       .  A
C3226      F3231   1.358       .  S
C3227      C3228   1.397       .  A
C3228      F3229   1.358       .  S
