geometry optimzed in LAMMPS
_audit_creation_date              2020-11-30 
_audit_creation_method            'lammps2cif' 
_symmetry_space_group_name_H-M    'P1' 
_symmetry_Int_Tables_number       1 
_symmetry_cell_setting            triclinic 
loop_ 
_symmetry_equiv_pos_as_xyz 
  x,y,z 
_cell_length_a                    50.95682765 
_cell_length_b                    50.902533165044325 
_cell_length_c                    50.695592162879436 
_cell_angle_alpha                 90.108671836731 
_cell_angle_beta                  90.20169935602804 
_cell_angle_gamma                 90.24258689567904 
loop_ 
_atom_site_label 
_atom_site_type_symbol 
_atom_site_fract_x 
_atom_site_fract_y 
_atom_site_fract_z 
_atom_site_charge 
O1          O  0.29601745  0.75309690  0.47633685    -0.78700
C2          C  0.30732200  0.70613496  0.54615093     0.82400
O3          O  0.27141401  0.65660801  0.46853257    -0.79800
O4          O  0.22246526  0.69392440  0.54942680    -0.81300
O5          O  0.21433962  0.76272917  0.50308738    -0.81100
O6          O  0.25783519  0.76377464  0.45803660    -0.79700
Zn7        Zn  0.28956890  0.71633107  0.48963928     1.55700
O8          O  0.23655473  0.75702605  0.54065103    -0.81100
Cd9        Cd  0.23278329  0.73806333  0.47691346     1.59700
Cd10       Cd  0.24091206  0.67590939  0.48888399     1.59600
O11         O  0.20525944  0.72021560  0.45179201    -0.81100
O12         O  0.25332776  0.71196357  0.49707141    -1.91600
Cd13       Cd  0.24997634  0.71922364  0.53494243     1.59900
O14         O  0.20979871  0.67797466  0.46255474    -0.81100
O15         O  0.28454443  0.71101966  0.55524109    -0.79700
C16         C  0.29169436  0.66679255  0.45754301     0.82800
C17         C  0.28184739  0.76892741  0.46299229     0.82500
O18         O  0.31177467  0.70806245  0.52155225    -0.78700
C19         C  0.22041488  0.76991772  0.52645931     0.83300
O20         O  0.29941649  0.69011690  0.46241641    -0.78800
C21         C  0.19830020  0.69613367  0.44973052     0.83400
C22         C  0.21627184  0.67028166  0.54402069     0.83700
O23         O  0.22423017  0.65884713  0.52294681    -0.81200
O24         O  0.80682781  0.70779946  0.97388868    -0.78700
C25         C  0.77878784  0.76673397  0.03483614     0.82400
O26         O  0.77055764  0.65549743  0.02810096    -0.79800
O27         O  0.70317939  0.71704867  0.04689634    -0.81300
O28         O  0.72887380  0.75560899  0.95786163    -0.81100
O29         O  0.77788732  0.71058572  0.94123634    -0.79700
Zn30       Zn  0.78562564  0.71564224  0.00629206     1.55700
O31         O  0.70928890  0.76225292  0.99658353    -0.81100
Cd32       Cd  0.74383811  0.71811930  0.96257192     1.59700
Cd33       Cd  0.73888811  0.67416824  0.00846310     1.59600
O34         O  0.71665933  0.69197088  0.94867198    -0.81100
O35         O  0.74918863  0.71086290  0.00020950    -1.91600
Cd36       Cd  0.72908899  0.73654313  0.02152013     1.59900
O37         O  0.72197454  0.65693045  0.97448639    -0.81100
O38         O  0.75516030  0.76124951  0.04113504    -0.79700
C39         C  0.79056094  0.66662257  0.03890287     0.82800
C40         C  0.80103506  0.70580170  0.94952287     0.82500
O41         O  0.79224458  0.75200580  0.01975416    -0.78700
C42         C  0.71396287  0.76912367  0.97280906     0.83300
O43         O  0.79710443  0.69005387  0.03323951    -0.78800
C44         C  0.71180333  0.66809077  0.95419038     0.83400
C45         C  0.69714275  0.69272257  0.04900874     0.83700
O46         O  0.70850479  0.67494140  0.03552590    -0.81200
O47         O  0.20060986  0.53236277  0.18675884    -0.78700
C48         C  0.26047429  0.47125896  0.21644930     0.82400
O49         O  0.14919145  0.47776462  0.22584109    -0.79800
O50         O  0.21398722  0.46236312  0.29417947    -0.81300
O51         O  0.24861950  0.55093382  0.26503032    -0.81100
O52         O  0.20229384  0.56450163  0.21621548    -0.79700
Zn53       Zn  0.20876729  0.49976667  0.20869882     1.55700
O54         O  0.25684245  0.51244064  0.28418462    -0.81100
Cd55       Cd  0.21083693  0.54417488  0.25079429     1.59700
Cd56       Cd  0.16889524  0.49642522  0.25718222     1.59600
O57         O  0.18487675  0.55657013  0.27908814    -0.81100
O58         O  0.20472004  0.50636390  0.24553092    -1.91600
Cd59       Cd  0.23125456  0.48665212  0.26605327     1.59900
O60         O  0.15123460  0.52844638  0.27632296    -0.81100
O61         O  0.25542344  0.46655464  0.24057704    -0.79700
C62         C  0.15901889  0.46736391  0.20508809     0.82800
C63         C  0.19790653  0.55658500  0.19270904     0.82500
O64         O  0.24516149  0.48544546  0.20245221    -0.78700
C65         C  0.26283545  0.53636457  0.27970554     0.83300
O66         O  0.18234289  0.47272591  0.19778617    -0.78800
C67         C  0.16197219  0.54920651  0.28593174     0.83400
C68         C  0.18990123  0.45765980  0.29922517     0.83700
O69         O  0.17123428  0.46836945  0.28649404    -0.81200
O70         O  0.53020388  0.19664252  0.19969486    -0.78700
C71         C  0.47295568  0.22386452  0.26257184     0.82400
O72         O  0.47601757  0.23341916  0.15068664    -0.79800
O73         O  0.45757431  0.29941872  0.21427868    -0.81300
O74         O  0.54786786  0.27316826  0.24923088    -0.81100
O75         O  0.56293333  0.22546701  0.20147170    -0.79700
Zn76       Zn  0.49861355  0.21795149  0.20974778     1.55700
O77         O  0.50956893  0.29277575  0.25681441    -0.81100
Cd78       Cd  0.54200431  0.25937241  0.21127436     1.59700
Cd79       Cd  0.49494982  0.26551704  0.16903307     1.59600
O80         O  0.55441852  0.28769614  0.18590928    -0.81100
O81         O  0.50448784  0.25431190  0.20511738    -1.91600
Cd82       Cd  0.48402177  0.27353401  0.23185344     1.59900
O83         O  0.52776290  0.28418451  0.15104628    -0.81100
O84         O  0.46605336  0.24727388  0.25714167    -0.79700
C85         C  0.46477416  0.21366159  0.16172853     0.82800
C86         C  0.55433870  0.20236050  0.19660997     0.82500
O87         O  0.48755357  0.21087728  0.24691232    -0.78700
C88         C  0.53330549  0.28796653  0.26325628     0.83300
O89         O  0.47022438  0.20730165  0.18532520    -0.78800
C90         C  0.54868603  0.29316419  0.16212798     0.83400
C91         C  0.45320809  0.30470670  0.19001644     0.83700
O92         O  0.46595304  0.29373244  0.17145945    -0.81200
O93         O  0.31056077  0.20756976  0.47237372    -0.78700
C94         C  0.28076208  0.26858344  0.53092366     0.82400
O95         O  0.26993963  0.15631236  0.52318704    -0.79800
O96         O  0.20386408  0.22011622  0.54022820    -0.81300
O97         O  0.23524039  0.25861777  0.45268505    -0.81100
O98         O  0.28380094  0.21189475  0.43819243    -0.79700
Zn99       Zn  0.28801156  0.21617382  0.50386637     1.55700
O100        O  0.21258204  0.26392466  0.48980425    -0.81100
Cd101      Cd  0.24893711  0.22060377  0.45798422     1.59700
Cd102      Cd  0.23992425  0.17654972  0.50320890     1.59600
O103        O  0.22109785  0.19552895  0.44353041    -0.81100
O104        O  0.25195487  0.21278678  0.49568939    -1.91600
Cd105      Cd  0.23118820  0.23877582  0.51573454     1.59900
O106        O  0.22363441  0.16000115  0.46917605    -0.81100
O107        O  0.25653811  0.26405053  0.53534264    -0.79700
C108        C  0.28956888  0.16652392  0.53535848     0.82800
C109        C  0.30631297  0.20616576  0.44761910     0.82500
O110        O  0.29462551  0.25247245  0.51765790    -0.78700
C111        C  0.21891947  0.27151792  0.46672745     0.83300
O112        O  0.29704323  0.19005340  0.53138320    -0.78800
C113        C  0.21504276  0.17181114  0.44863551     0.83400
C114        C  0.19715414  0.19593355  0.54193814     0.83700
O115        O  0.20872185  0.17794933  0.52899506    -0.81200
O116        O  0.74432716  0.52730864  0.20551379    -0.78700
C117        C  0.69717306  0.45725683  0.19398757     0.82400
O118        O  0.64771091  0.53307267  0.22924686    -0.79800
O119        O  0.68356471  0.45420843  0.28045061    -0.81300
O120        O  0.75374621  0.50137747  0.28749509    -0.81100
O121        O  0.75391889  0.54715231  0.24363521    -0.79700
Zn122      Zn  0.70777475  0.51332779  0.21217972     1.55700
O123        O  0.74737849  0.46249624  0.26769211    -0.81100
Cd124      Cd  0.72912800  0.52679561  0.26865819     1.59700
Cd125      Cd  0.66736231  0.51455019  0.26021377     1.59600
O126        O  0.71147536  0.55142366  0.29609910    -0.81100
O127        O  0.70329217  0.50569328  0.24845452    -1.91600
Cd128      Cd  0.70961389  0.46773481  0.25255545     1.59900
O129        O  0.66908229  0.54284992  0.28939368    -0.81100
O130        O  0.70130183  0.44790440  0.21703656    -0.79700
C131        C  0.65802934  0.54505670  0.20966069     0.82800
C132        C  0.75916160  0.54192342  0.21964225     0.82500
O133        O  0.69953794  0.48175700  0.18961419    -0.78700
C134        C  0.76025039  0.47762363  0.28329101     0.83300
O135        O  0.68156502  0.54044591  0.20266941    -0.78800
C136        C  0.68731835  0.55519569  0.30141547     0.83400
C137        C  0.66078540  0.46125801  0.28787870     0.83700
O138        O  0.64997852  0.48215581  0.27898500    -0.81200
O139        O  0.01600090  0.30337851  0.25479824    -0.78700
C140        C  0.94700035  0.31230968  0.30240008     0.82400
O141        O  0.02771171  0.28225581  0.35089711    -0.79800
O142        O  0.94867331  0.22742885  0.31881471    -0.81300
O143        O  0.99103760  0.22148034  0.24560392    -0.81100
O144        O  0.03552662  0.26599017  0.24410747    -0.79700
Zn145      Zn  0.00335352  0.29701388  0.29148263     1.55700
O146        O  0.95275703  0.24028534  0.25422272    -0.81100
Cd147      Cd  0.01716077  0.24042091  0.26990536     1.59700
Cd148      Cd  0.00895117  0.24987902  0.33273060     1.59600
O149        O  0.04204814  0.21273050  0.28677410    -0.81100
O150        O  0.99777950  0.26057048  0.29683867    -1.91600
Cd151      Cd  0.95998464  0.25480988  0.29174894     1.59900
O152        O  0.03678112  0.22033976  0.32977732    -0.81100
O153        O  0.93891865  0.28871884  0.29959878    -0.79700
C154        C  0.03655207  0.30338072  0.34025926     0.82800
C155        C  0.02989239  0.28982949  0.23898260     0.82500
O156        O  0.97105837  0.31806795  0.29916799    -0.78700
C157        C  0.96719312  0.22584217  0.23967994     0.83300
O158        O  0.03004343  0.30967316  0.31692318    -0.78800
C159        C  0.04708290  0.20745133  0.31087148     0.83400
C160        C  0.95628610  0.22148890  0.34202499     0.83700
O161        O  0.97729107  0.23135200  0.35200640    -0.81200
O162        O  0.80290753  0.02926148  0.30940879    -0.78700
C163        C  0.73821531  0.97425461  0.27948842     0.82400
O164        O  0.84975415  0.97589257  0.27104450    -0.79800
O165        O  0.78568145  0.96230067  0.20223643    -0.81300
O166        O  0.75211542  0.05171428  0.23371360    -0.81100
O167        O  0.80064169  0.06326199  0.28219808    -0.79700
Zn168      Zn  0.79154081  0.99862767  0.28678660     1.55700
O169        O  0.74438322  0.01461601  0.21149021    -0.81100
Cd170      Cd  0.79002757  0.04418740  0.24719019     1.59700
Cd171      Cd  0.83101362  0.99614984  0.24020250     1.59600
O172        O  0.81572426  0.05643077  0.21886299    -0.81100
O173        O  0.79529284  0.00623969  0.25076665    -1.91600
Cd174      Cd  0.76832875  0.98755222  0.22976882     1.59900
O175        O  0.84936291  0.02857608  0.22291481    -0.81100
O176        O  0.74249995  0.96909689  0.25525225    -0.79700
C177        C  0.83846708  0.96395152  0.29018094     0.82800
C178        C  0.80612245  0.05362998  0.30481194     0.82500
O179        O  0.75468878  0.98746087  0.29319136    -0.78700
C180        C  0.73813838  0.03803916  0.21772796     0.83300
O181        O  0.81496406  0.96927970  0.29629518    -0.78800
C182        C  0.83888160  0.04920267  0.21304724     0.83400
C183        C  0.80988829  0.95769169  0.19753777     0.83700
O184        O  0.82825407  0.96907224  0.21027458    -0.81200
O185        O  0.70590588  0.76089375  0.47828962    -0.78700
C186        C  0.69422483  0.80772363  0.54882773     0.82400
O187        O  0.73194356  0.85681022  0.47183887    -0.79800
O188        O  0.77916013  0.81943106  0.55312327    -0.81300
O189        O  0.78758293  0.74965861  0.50831095    -0.81100
O190        O  0.74474903  0.74952318  0.46133412    -0.79700
Zn191      Zn  0.71263087  0.79730674  0.49264659     1.55700
O192        O  0.76428478  0.75732904  0.54473261    -0.81100
Cd193      Cd  0.77011379  0.77448954  0.48113564     1.59700
Cd194      Cd  0.76227200  0.83694827  0.49185579     1.59600
O195        O  0.79817704  0.79197622  0.45629509    -0.81100
O196        O  0.74911275  0.80121118  0.50015394    -1.91600
Cd197      Cd  0.75158376  0.79474499  0.53805694     1.59900
O198        O  0.79355268  0.83455405  0.46564313    -0.81100
O199        O  0.71713059  0.80320763  0.55769872    -0.79700
C200        C  0.71113930  0.84738161  0.46101316     0.82800
C201        C  0.72036497  0.74527695  0.46510956     0.82500
O202        O  0.68948982  0.80548064  0.52421539    -0.78700
C203        C  0.78086078  0.74383231  0.53182910     0.83300
O204        O  0.70335656  0.82408934  0.46596654    -0.78800
C205        C  0.80500203  0.81601195  0.45327653     0.83400
C206        C  0.78602124  0.84276958  0.54755723     0.83700
O207        O  0.77856646  0.85397633  0.52617350    -0.81200
C208        C  0.92229414  0.84230145  0.34849281     0.86300
C209        C  0.93998562  0.86014728  0.36617259    -0.53900
C210        C  0.92659200  0.87891632  0.38008121     0.09200
C211        C  0.89670596  0.87786440  0.37541503     0.20200
C212        C  0.90256948  0.83087315  0.36823808    -0.54700
C213        C  0.88865135  0.84918636  0.38206320     0.09300
C214        C  0.90668566  0.86167567  0.33161781    -0.54200
C215        C  0.89402844  0.88066316  0.34527337     0.09900
H216        H  0.96102808  0.85839690  0.36832396     0.14400
H217        H  0.88544545  0.89283528  0.38635804     0.00100
H218        H  0.90026866  0.80999834  0.37172257     0.14700
H219        H  0.90648014  0.86095507  0.31018093     0.14500
C220        C  0.84204848  0.15412939  0.42412128     0.86300
C221        C  0.82889305  0.13782020  0.40188781    -0.53900
C222        C  0.84593809  0.12389601  0.38660616     0.09200
C223        C  0.87478088  0.12641047  0.39570330     0.20200
C224        C  0.85712547  0.13315749  0.43987403    -0.54700
C225        C  0.87445933  0.11881534  0.42516009     0.09300
C226        C  0.86323346  0.17030378  0.41001141    -0.54200
C227        C  0.88051423  0.15605794  0.39562820     0.09900
H228        H  0.80800150  0.13584674  0.39869374     0.14400
H229        H  0.88880596  0.11478821  0.38375120     0.00100
H230        H  0.85452875  0.12988030  0.46079736     0.14700
H231        H  0.86458675  0.19157928  0.41146161     0.14500
C232        C  0.85120159  0.92910797  0.65999390     0.86300
C233        C  0.86862372  0.90779970  0.67301960    -0.53900
C234        C  0.88349772  0.89345053  0.65569677     0.09200
C235        C  0.88060176  0.90280902  0.62674290     0.20200
C236        C  0.87142776  0.94615290  0.64524133    -0.54700
C237        C  0.88629960  0.93272854  0.62730619     0.09300
C238        C  0.83605818  0.91417720  0.63856389    -0.54200
C239        C  0.85101797  0.90072811  0.62109104     0.09900
H240        H  0.87061487  0.90519366  0.69406141     0.14400
H241        H  0.89270493  0.89166662  0.61242539     0.00100
H242        H  0.87407825  0.96700782  0.64866999     0.14700
H243        H  0.81473206  0.91380847  0.63760508     0.14500
C244        C  0.14937716  0.08808016  0.33517168     0.86300
C245        C  0.13015370  0.06964252  0.34998836    -0.53900
C246        C  0.11495399  0.08225586  0.36829633     0.09200
C247        C  0.12038403  0.11202955  0.37033540     0.20200
C248        C  0.13153894  0.10959126  0.32370459    -0.54700
C249        C  0.11673076  0.12256936  0.34199585     0.09300
C250        C  0.16477355  0.10098473  0.35763771    -0.54200
C251        C  0.15007368  0.11392677  0.37561555     0.09900
H252        H  0.12907464  0.04852575  0.34769279     0.14400
H253        H  0.10820702  0.12200424  0.38535751     0.00100
H254        H  0.13125430  0.11460434  0.30288846     0.14700
H255        H  0.18608327  0.10065972  0.35885597     0.14500
C256        C  0.08308364  0.16823568  0.64850048     0.86300
C257        C  0.10305979  0.18015785  0.62933767    -0.53900
C258        C  0.11718249  0.16213095  0.61548552     0.09200
C259        C  0.10902944  0.13340224  0.62091599     0.20200
C260        C  0.06556968  0.15083409  0.63025007    -0.54700
C261        C  0.07913131  0.13243219  0.61602782     0.09300
C262        C  0.09824408  0.14820421  0.66502976    -0.54200
C263        C  0.11183366  0.13008549  0.65100216     0.09900
H264        H  0.10559852  0.20111507  0.62645297     0.14400
H265        H  0.12001833  0.11893030  0.60897583     0.00100
H266        H  0.04449007  0.15227351  0.62828795     0.14700
H267        H  0.09751063  0.14784525  0.68646134     0.14500
C268        C  0.16121931  0.85326509  0.57728758     0.86300
C269        C  0.14440154  0.87270290  0.56143573    -0.53900
C270        C  0.12675104  0.88633457  0.57625130     0.09200
C271        C  0.12822851  0.88047186  0.60592880     0.20200
C272        C  0.17450695  0.87092109  0.59843597    -0.54700
C273        C  0.15724736  0.88538922  0.61311655     0.09300
C274        C  0.14188940  0.83666239  0.59322141    -0.54200
C275        C  0.12464595  0.85057301  0.60790140     0.09900
H276        H  0.14641139  0.87582191  0.54038691     0.14400
H277        H  0.11405233  0.89185615  0.61794798     0.00100
H278        H  0.19539943  0.87272571  0.60182729     0.14700
H279        H  0.14163051  0.81530318  0.59269854     0.14500
O280        O  0.02637175  0.02429219  0.44086816    -0.78700
C281        C  0.97825264  0.95225891  0.45242684     0.82400
O282        O  0.95417850  0.04892312  0.49769361    -0.79800
O283        O  0.97128338  0.96423544  0.53867689    -0.81300
O284        O  0.06164280  0.98254698  0.52077972    -0.81100
O285        O  0.05919263  0.02651538  0.46979312    -0.79700
Zn286      Zn  0.99509072  0.00997590  0.46118688     1.55700
O287        O  0.03173627  0.95060829  0.52222830    -0.81100
Cd288      Cd  0.04137717  0.01397389  0.50449490     1.59700
Cd289      Cd  0.98069059  0.02823476  0.52133769     1.59600
O290        O  0.04481286  0.04418041  0.53149209    -0.81100
O291        O  0.00345162  0.00513884  0.49843153    -1.91600
Cd292      Cd  0.99768004  0.96737676  0.50800820     1.59900
O293        O  0.00391922  0.05553922  0.54225823    -0.81100
O294        O  0.98341091  0.94563840  0.47612757    -0.79700
C295        C  0.95193763  0.05027139  0.47263147     0.82800
C296        C  0.05015076  0.02995405  0.44656316     0.82500
O297        O  0.98215316  0.97577573  0.44452218    -0.78700
C298        C  0.05484787  0.95919594  0.52680992     0.83300
O299        O  0.96626919  0.03672555  0.45725180    -0.78800
C300        C  0.02878095  0.05848206  0.54424854     0.83400
C301        C  0.95839718  0.98050553  0.55261154     0.83700
O302        O  0.95953154  0.00527962  0.54850621    -0.81200
O303        O  0.69162171  0.30439310  0.47515529    -0.78700
C304        C  0.71979129  0.24332320  0.53466059     0.82400
O305        O  0.73057551  0.35354480  0.52922336    -0.79800
O306        O  0.79703771  0.29249604  0.54570441    -0.81300
O307        O  0.76765251  0.25325465  0.45739228    -0.81100
O308        O  0.71910734  0.29940578  0.44188051    -0.79700
Zn309      Zn  0.71342120  0.29434815  0.50663989     1.55700
O310        O  0.78813725  0.24697878  0.49582766    -0.81100
Cd311      Cd  0.75330471  0.29082895  0.46272302     1.59700
Cd312      Cd  0.76053167  0.33496196  0.50802301     1.59600
O313        O  0.78030782  0.31670625  0.44896427    -0.81100
O314        O  0.74952158  0.29847970  0.50021159    -1.91600
Cd315      Cd  0.76972630  0.27297001  0.52126102     1.59900
O316        O  0.77399940  0.35259909  0.47337749    -0.81100
O317        O  0.74339972  0.24895074  0.54123176    -0.79700
C318        C  0.71122118  0.34229557  0.54070044     0.82800
C319        C  0.69660444  0.30583910  0.45061104     0.82500
O320        O  0.70646975  0.25776944  0.51912603    -0.78700
C321        C  0.78300111  0.23996855  0.47213383     0.83300
O322        O  0.70396298  0.31913107  0.53474186    -0.78800
C323        C  0.78361954  0.34112430  0.45310129     0.83400
C324        C  0.80381040  0.31672901  0.54704412     0.83700
O325        O  0.79244362  0.33432246  0.53331726    -0.81200
O326        O  0.02523103  0.69381699  0.70010180    -0.78700
C327        C  0.96595714  0.72386499  0.76029647     0.82400
O328        O  0.97047010  0.73181894  0.64904861    -0.79800
O329        O  0.95466851  0.80026604  0.70992831    -0.81300
O330        O  0.04286920  0.77145709  0.74880618    -0.81100
O331        O  0.05850351  0.72178745  0.70272996    -0.79700
Zn332      Zn  0.99374994  0.71604971  0.70870077     1.55700
O333        O  0.00469567  0.79216441  0.75440314    -0.81100
Cd334      Cd  0.03774695  0.75628641  0.71096613     1.59700
Cd335      Cd  0.99142435  0.76317316  0.66690268     1.59600
O336        O  0.05151371  0.78290250  0.68452568    -0.81100
O337        O  0.00013069  0.75233146  0.70344675    -1.91600
Cd338      Cd  0.97929192  0.77299241  0.72893813     1.59900
O339        O  0.02576449  0.77798982  0.64905912    -0.81100
O340        O  0.96000430  0.74741581  0.75418330    -0.79700
C341        C  0.96017080  0.71164266  0.66022600     0.82800
C342        C  0.04959918  0.69878605  0.69792026     0.82500
O343        O  0.98072871  0.71013352  0.74543697    -0.78700
C344        C  0.02811000  0.78706926  0.76176567     0.83300
O345        O  0.96652025  0.70497591  0.68349100    -0.78800
C346        C  0.04633672  0.78741292  0.66035035     0.83400
C347        C  0.95295437  0.80698836  0.68565325     0.83700
O348        O  0.96584037  0.79505674  0.66774744    -0.81200
C349        C  0.15035026  0.58383689  0.65677181     0.86300
C350        C  0.13248610  0.60427296  0.67023694    -0.53900
C351        C  0.11777396  0.61884965  0.65321519     0.09200
C352        C  0.12192496  0.61160544  0.62385105     0.20200
C353        C  0.13104277  0.56742802  0.64011757    -0.54700
C354        C  0.11673667  0.58167279  0.62233356     0.09300
C355        C  0.16615994  0.60015369  0.63698818    -0.54200
C356        C  0.15173739  0.61429671  0.61944784     0.09900
H357        H  0.13089125  0.60758467  0.69123917     0.14400
H358        H  0.10976053  0.62341782  0.61016768     0.00100
H359        H  0.12859587  0.54637222  0.64228848     0.14700
H360        H  0.18749878  0.60032843  0.63679968     0.14500
C361        C  0.16059236  0.35859383  0.41943968     0.86300
C362        C  0.17298060  0.37483754  0.39733076    -0.53900
C363        C  0.15577796  0.39006503  0.38378079     0.09200
C364        C  0.12739015  0.38898506  0.39449495     0.20200
C365        C  0.14728557  0.37965711  0.43722988    -0.54700
C366        C  0.13000053  0.39565187  0.42404486     0.09300
C367        C  0.13722270  0.34415219  0.40693162    -0.54200
C368        C  0.11946749  0.35975293  0.39451451     0.09900
H369        H  0.19383401  0.37493765  0.39309453     0.14400
H370        H  0.11325208  0.40158266  0.38374127     0.00100
H371        H  0.15004822  0.38174353  0.45827671     0.14700
H372        H  0.13466825  0.32300290  0.40838248     0.14500
C373        C  0.83864695  0.65762557  0.57819802     0.86300
C374        C  0.85279336  0.63800903  0.55987022    -0.53900
C375        C  0.86952740  0.62130286  0.57273507     0.09200
C376        C  0.87117560  0.62638118  0.60274552     0.20200
C377        C  0.82586607  0.64101031  0.59980625    -0.54700
C378        C  0.84261610  0.62462479  0.61271858     0.09300
C379        C  0.86181227  0.67171383  0.59175880    -0.54200
C380        C  0.87863459  0.65556488  0.60454886     0.09900
H381        H  0.85221347  0.63899096  0.53853472     0.14400
H382        H  0.88517793  0.61360879  0.61347732     0.00100
H383        H  0.80513901  0.64224900  0.60459309     0.14700
H384        H  0.86510098  0.69280708  0.59093127     0.14500
C385        C  0.84579148  0.42878572  0.33917987     0.86300
C386        C  0.86745054  0.44375027  0.35418737    -0.53900
C387        C  0.88235545  0.42839394  0.37056514     0.09200
C388        C  0.87358780  0.39937321  0.37102165     0.20200
C389        C  0.85984186  0.40572991  0.32540313    -0.54700
C390        C  0.87470201  0.39074215  0.34193420     0.09300
C391        C  0.82981734  0.41496901  0.36073670    -0.54200
C392        C  0.84412752  0.40027125  0.37762849     0.09900
H393        H  0.87017738  0.46485185  0.35254654     0.14400
H394        H  0.88528084  0.38668290  0.38438230     0.00100
H395        H  0.85812952  0.40075649  0.30473723     0.14700
H396        H  0.80859221  0.41625934  0.36237590     0.14500
C397        C  0.92193875  0.34929284  0.64900137     0.86300
C398        C  0.90170366  0.33709528  0.63011617    -0.53900
C399        C  0.88717912  0.35476353  0.61617716     0.09200
C400        C  0.89469370  0.38363012  0.62207197     0.20200
C401        C  0.93876295  0.36708593  0.63069653    -0.54700
C402        C  0.92448870  0.38526772  0.61675128     0.09300
C403        C  0.90699765  0.36916072  0.66592663    -0.54200
C404        C  0.89250302  0.38674402  0.65219361     0.09900
H405        H  0.89942862  0.31605355  0.62745023     0.14400
H406        H  0.88277487  0.39802591  0.61104140     0.00100
H407        H  0.95987569  0.36623940  0.62881334     0.14700
H408        H  0.90817060  0.36957541  0.68734576     0.14500
C409        C  0.08084389  0.66766363  0.34459020     0.86300
C410        C  0.06297364  0.65305977  0.36442036    -0.53900
C411        C  0.07613312  0.63630153  0.38089605     0.09200
C412        C  0.10575012  0.63460670  0.37519505     0.20200
C413        C  0.10254112  0.68030919  0.36139775    -0.54700
C414        C  0.11599771  0.66317028  0.37706124     0.09300
C415        C  0.09428242  0.64484548  0.33000676    -0.54200
C416        C  0.10680441  0.62733096  0.34577140     0.09900
H417        H  0.04174577  0.65352147  0.36405112     0.14400
H418        H  0.11640311  0.62056861  0.38807546     0.00100
H419        H  0.10684949  0.70121959  0.36091571     0.14700
H420        H  0.09380130  0.64256971  0.30870845     0.14500
O421        O  0.01909036  0.56632435  0.47184639    -0.78700
C422        C  0.94679964  0.55655324  0.51948449     0.82400
O423        O  0.04204223  0.50989111  0.54507639    -0.79800
O424        O  0.95649936  0.47271579  0.53018127    -0.81300
O425        O  0.97649559  0.48526397  0.43765514    -0.81100
O426        O  0.01941368  0.53672314  0.43954210    -0.79700
Zn427      Zn  0.00407025  0.54671849  0.50356930     1.55700
O428        O  0.94437049  0.48454928  0.46736245    -0.81100
Cd429      Cd  0.00758191  0.50256023  0.45792005     1.59700
Cd430      Cd  0.02067183  0.48633809  0.51879178     1.59600
O431        O  0.03904183  0.47710610  0.45518370    -0.81100
O432        O  0.99847223  0.50954715  0.49561378    -1.91600
Cd433      Cd  0.96061012  0.50081436  0.50112262     1.59900
O434        O  0.04724353  0.46450432  0.49645861    -0.81100
O435        O  0.93943330  0.53330523  0.51353020    -0.79700
C436        C  0.04310979  0.53480943  0.54812648     0.82800
C437        C  0.02420021  0.55980566  0.44807028     0.82500
O438        O  0.97045846  0.56402671  0.51604075    -0.78700
C439        C  0.95320780  0.47910808  0.44451647     0.83300
O440        O  0.02987235  0.55032544  0.53362120    -0.78800
C441        C  0.05200794  0.46351546  0.47177347     0.83400
C442        C  0.97238483  0.45813860  0.54286473     0.83700
O443        O  0.99723298  0.46013759  0.54023153    -0.81200
C444        C  0.66403250  0.35578565  0.07596803     0.86300
C445        C  0.64868601  0.37511983  0.05806892    -0.53900
C446        C  0.63015778  0.38968207  0.07110850     0.09200
C447        C  0.62947469  0.38441130  0.10114153     0.20200
C448        C  0.67591407  0.37381265  0.09715160    -0.54700
C449        C  0.65808745  0.38840272  0.11066432     0.09300
C450        C  0.64220657  0.34009314  0.08962193    -0.54200
C451        C  0.62433180  0.35471431  0.10299469     0.09900
H452        H  0.65211005  0.37787768  0.03728779     0.14400
H453        H  0.61516076  0.39648299  0.11221832     0.00100
H454        H  0.69683772  0.37543225  0.10086362     0.14700
H455        H  0.64115731  0.31876198  0.08902924     0.14500
C456        C  0.57797169  0.66788615  0.15023319     0.86300
C457        C  0.59828597  0.67903287  0.13093734    -0.53900
C458        C  0.61156252  0.66048784  0.11690869     0.09200
C459        C  0.60280840  0.63211682  0.12295877     0.20200
C460        C  0.55987908  0.65068228  0.13242720    -0.54700
C461        C  0.57292845  0.63180296  0.11840597     0.09300
C462        C  0.59262174  0.64755670  0.16694377    -0.54200
C463        C  0.60588578  0.62913559  0.15298341     0.09900
H464        H  0.60182278  0.69988887  0.12832575     0.14400
H465        H  0.61327448  0.61706051  0.11138583     0.00100
H466        H  0.53877049  0.65217636  0.13104102     0.14700
H467        H  0.59218571  0.64753770  0.18838351     0.14500
C468        C  0.41580800  0.34697680  0.84809888     0.86300
C469        C  0.43412824  0.36284335  0.86681850    -0.53900
C470        C  0.42132817  0.38008976  0.88300264     0.09200
C471        C  0.39140672  0.38067572  0.87838279     0.20200
C472        C  0.39544692  0.33449121  0.86658411    -0.54700
C473        C  0.38270272  0.35189439  0.88254602     0.09300
C474        C  0.40135935  0.36861335  0.83313667    -0.54200
C475        C  0.38840080  0.38596290  0.84859437     0.09900
H476        H  0.45527697  0.36258733  0.86620733     0.14400
H477        H  0.38084085  0.39496932  0.89101711     0.00100
H478        H  0.39169240  0.31350995  0.86731971     0.14700
H479        H  0.40162025  0.37037191  0.81177042     0.14500
C480        C  0.33897591  0.65693768  0.92169719     0.86300
C481        C  0.32612079  0.63978282  0.89976792    -0.53900
C482        C  0.34334382  0.62356499  0.88683377     0.09200
C483        C  0.37196949  0.62650996  0.89655035     0.20200
C484        C  0.35290827  0.63656793  0.93930434    -0.54700
C485        C  0.37050360  0.62106394  0.92634826     0.09300
C486        C  0.36082093  0.67157317  0.90706062    -0.54200
C487        C  0.37811018  0.65597309  0.89428158     0.09900
H488        H  0.30555671  0.63996873  0.89446919     0.14400
H489        H  0.38637936  0.61408059  0.88598424     0.00100
H490        H  0.34904076  0.63422766  0.96017207     0.14700
H491        H  0.36247973  0.69287509  0.90676875     0.14500
C492        C  0.64683487  0.57836910  0.83992453     0.86300
C493        C  0.62675093  0.56339117  0.85706430    -0.53900
C494        C  0.61380483  0.57859679  0.87524217     0.09200
C495        C  0.62143510  0.60797076  0.87346879     0.20200
C496        C  0.63006199  0.60000503  0.82691520    -0.54700
C497        C  0.61688649  0.61545813  0.84433737     0.09300
C498        C  0.66439113  0.59341556  0.85939625    -0.54200
C499        C  0.65145949  0.60820549  0.87739618     0.09900
H500        H  0.62297704  0.54255335  0.85495458     0.14400
H501        H  0.61077893  0.62120634  0.88689899     0.00100
H502        H  0.62746480  0.60287812  0.80594152     0.14700
H503        H  0.68565840  0.59262758  0.85861712     0.14500
C504        C  0.34824530  0.42206179  0.16101510     0.86300
C505        C  0.36430912  0.40051294  0.17524562    -0.53900
C506        C  0.38127454  0.38724725  0.15915034     0.09200
C507        C  0.37988971  0.39598276  0.13001226     0.20200
C508        C  0.36920386  0.43916118  0.14757578    -0.54700
C509        C  0.38542352  0.42572343  0.13097827     0.09300
C510        C  0.33447186  0.40688238  0.13880562    -0.54200
C511        C  0.35076006  0.39375467  0.12241638     0.09900
H512        H  0.36195656  0.39490158  0.19561910     0.14400
H513        H  0.39277271  0.38489103  0.11640414     0.00100
H514        H  0.37016611  0.46036873  0.14987438     0.14700
H515        H  0.31329449  0.40660868  0.13612141     0.14500
O516        O  0.46859097  0.55903783  0.98021351    -0.78700
C517        C  0.52139787  0.55693457  0.04846315     0.82400
O518        O  0.54015598  0.50446160  0.95201541    -0.79800
O519        O  0.53824523  0.47371051  0.04305520    -0.81300
O520        O  0.44278302  0.48271935  0.03194160    -0.81100
O521        O  0.43791184  0.52805745  0.98316460    -0.79700
Zn522      Zn  0.50226298  0.54200284  0.99324220     1.55700
O523        O  0.47593459  0.48267159  0.06066826    -0.81100
Cd524      Cd  0.45919198  0.49639950  0.99726630     1.59700
Cd525      Cd  0.51934838  0.48138584  0.97910717     1.59600
O526        O  0.45490174  0.46742021  0.96939662    -0.81100
O527        O  0.49717512  0.50502750  0.00196544    -1.91600
Cd528      Cd  0.50675619  0.49891483  0.03965864     1.59900
O529        O  0.49534521  0.45544192  0.95769503    -0.81100
O530        O  0.51806938  0.53369617  0.05720190    -0.79700
C531        C  0.54179060  0.52939328  0.94952029     0.82800
C532        C  0.44492516  0.55134529  0.97719131     0.82500
O533        O  0.51613043  0.56272233  0.02458776    -0.78700
C534        C  0.45202352  0.47794424  0.05481682     0.83300
O535        O  0.52884068  0.54499396  0.96418568    -0.78800
C536        C  0.47040451  0.45345885  0.95569369     0.83400
C537        C  0.55153534  0.46000692  0.02691829     0.83700
O538        O  0.54649859  0.46015488  0.00215295    -0.81200
O539        O  0.29908375  0.48202140  0.68709258    -0.78700
C540        C  0.23839932  0.54044543  0.71601476     0.82400
O541        O  0.35021955  0.53526981  0.72208769    -0.79800
O542        O  0.28902692  0.55343574  0.79267783    -0.81300
O543        O  0.24958987  0.46586601  0.76331827    -0.81100
O544        O  0.29637758  0.44958497  0.71587203    -0.79700
Zn545      Zn  0.29047876  0.51407282  0.70853750     1.55700
O546        O  0.24432144  0.50374476  0.78475426    -0.81100
Cd547      Cd  0.28773675  0.47097185  0.74974143     1.59700
Cd548      Cd  0.33198932  0.51698965  0.75499617     1.59600
O549        O  0.31326406  0.45828604  0.77786274    -0.81100
O550        O  0.29541771  0.50833145  0.74490810    -1.91600
Cd551      Cd  0.26973513  0.52888635  0.76545639     1.59900
O552        O  0.34887224  0.48345263  0.77300862    -0.81100
O553        O  0.24416241  0.54738909  0.73955473    -0.79700
C554        C  0.33928583  0.54581551  0.70180685     0.82800
C555        C  0.30129367  0.45776450  0.69266663     0.82500
O556        O  0.25380992  0.52593142  0.70267595    -0.78700
C557        C  0.23661639  0.48053099  0.77899398     0.83300
O558        O  0.31537775  0.54120649  0.69632083    -0.78800
C559        C  0.33716686  0.46355442  0.78326116     0.83400
C560        C  0.31343539  0.55687832  0.79782122     0.83700
O561        O  0.33123808  0.54481507  0.78502632    -0.81200
C562        C  0.66279343  0.65664845  0.42251448     0.86300
C563        C  0.64793771  0.63736497  0.44073414    -0.53900
C564        C  0.63088055  0.62097597  0.42771361     0.09200
C565        C  0.62929805  0.62602937  0.39781546     0.20200
C566        C  0.67510849  0.63947339  0.40095571    -0.54700
C567        C  0.65781798  0.62322430  0.38822081     0.09300
C568        C  0.64027294  0.67118838  0.40865031    -0.54200
C569        C  0.62302409  0.65544623  0.39566423     0.09900
H570        H  0.64880965  0.63751380  0.46202400     0.14400
H571        H  0.61484619  0.61347469  0.38721009     0.00100
H572        H  0.69579797  0.64041927  0.39593362     0.14700
H573        H  0.63816894  0.69243217  0.40882262     0.14500
C574        C  0.65095721  0.42357523  0.66098376     0.86300
C575        C  0.63147684  0.43961053  0.64377812    -0.53900
C576        C  0.61680344  0.42485265  0.62609173     0.09200
C577        C  0.62360685  0.39521275  0.62772215     0.20200
C578        C  0.63311087  0.40304285  0.67409164    -0.54700
C579        C  0.61933622  0.38761866  0.65691523     0.09300
C580        C  0.66739964  0.40900610  0.64061148    -0.54200
C581        C  0.65355069  0.39447119  0.62318022     0.09900
H582        H  0.62958760  0.46070053  0.64489360     0.14400
H583        H  0.61223458  0.38232548  0.61463844     0.00100
H584        H  0.63078988  0.40139417  0.69527236     0.14700
H585        H  0.68864677  0.41081815  0.63944516     0.14500
C586        C  0.42257468  0.66630490  0.64836762     0.86300
C587        C  0.43963846  0.65505276  0.62613685    -0.53900
C588        C  0.42678634  0.63793162  0.60974960     0.09200
C589        C  0.39735340  0.63466857  0.61618633     0.20200
C590        C  0.39951020  0.67932715  0.63354860    -0.54700
C591        C  0.38639450  0.66297896  0.61681073     0.09300
C592        C  0.40987146  0.64244604  0.66176996    -0.54200
C593        C  0.39730482  0.62550246  0.64516765     0.09900
H594        H  0.46061657  0.65868063  0.62475889     0.14400
H595        H  0.38667779  0.62109892  0.60272015     0.00100
H596        H  0.39370152  0.69967403  0.63488973     0.14700
H597        H  0.41086289  0.63917218  0.68292614     0.14500
C598        C  0.35037517  0.58326421  0.33830879     0.86300
C599        C  0.36809834  0.60389033  0.32460517    -0.53900
C600        C  0.38243154  0.61940338  0.34145980     0.09200
C601        C  0.37872753  0.61186820  0.37081223     0.20200
C602        C  0.37019439  0.56738491  0.35470198    -0.54700
C603        C  0.38459949  0.58211413  0.37212227     0.09300
C604        C  0.33454401  0.59904227  0.35841875    -0.54200
C605        C  0.34898219  0.61400586  0.37530123     0.09900
H606        H  0.37130459  0.60466690  0.30358200     0.14400
H607        H  0.39050385  0.62387506  0.38486377     0.00100
H608        H  0.37313595  0.54643466  0.35250708     0.14700
H609        H  0.31324013  0.59824692  0.35935689     0.14500
C610        C  0.57852875  0.34520009  0.35231593     0.86300
C611        C  0.60121770  0.33275976  0.36816597    -0.53900
C612        C  0.61548027  0.35014223  0.38297418     0.09200
C613        C  0.60566739  0.37875002  0.38072287     0.20200
C614        C  0.56244500  0.35913263  0.37383188    -0.54700
C615        C  0.57642128  0.37706037  0.38835715     0.09300
C616        C  0.59160604  0.36721254  0.33647716    -0.54200
C617        C  0.60518691  0.38508087  0.35104172     0.09900
H618        H  0.60503142  0.31189987  0.36949354     0.14400
H619        H  0.61727583  0.39318325  0.39238013     0.00100
H620        H  0.54176775  0.35569478  0.37710662     0.14700
H621        H  0.59033701  0.36837615  0.31511159     0.14500
C622        C  0.33920646  0.35705354  0.57576537     0.86300
C623        C  0.32605140  0.37462342  0.59672062    -0.53900
C624        C  0.34321601  0.38924542  0.61134637     0.09200
C625        C  0.37226076  0.38518664  0.60386489     0.20200
C626        C  0.35557995  0.37680952  0.55952286    -0.54700
C627        C  0.37342765  0.39093683  0.57404890     0.09300
C628        C  0.35913160  0.34100179  0.59159997    -0.54200
C629        C  0.37659571  0.35532421  0.60594412     0.09900
H630        H  0.30516929  0.37661252  0.59982679     0.14400
H631        H  0.38615211  0.39728869  0.61561599     0.00100
H632        H  0.35327028  0.37961384  0.53846490     0.14700
H633        H  0.35968357  0.31964792  0.59110152     0.14500
O634        O  0.47080868  0.45427468  0.52095333    -0.78700
C635        C  0.52616891  0.45590674  0.45352102     0.82400
O636        O  0.54570422  0.50378292  0.55084213    -0.79800
O637        O  0.54317047  0.53864225  0.46118791    -0.81300
O638        O  0.44839213  0.53093674  0.47002561    -0.81100
O639        O  0.44177799  0.48660109  0.51928797    -0.79700
Zn640      Zn  0.50545795  0.46955329  0.50844778     1.55700
O641        O  0.48124969  0.53036666  0.44136188    -0.81100
Cd642      Cd  0.46458090  0.51702467  0.50474898     1.59700
Cd643      Cd  0.52523870  0.52811705  0.52481968     1.59600
O644        O  0.46228580  0.54721486  0.53125129    -0.81100
O645        O  0.50200938  0.50667836  0.50055337    -1.91600
Cd646      Cd  0.51159333  0.51352624  0.46304033     1.59900
O647        O  0.50277601  0.55433497  0.54669783    -0.81100
O648        O  0.52339118  0.47929076  0.44518157    -0.79700
C649        C  0.54587100  0.47879466  0.55282171     0.82800
C650        C  0.44763741  0.46294674  0.52476535     0.82500
O651        O  0.51937410  0.44944327  0.47684336    -0.78700
C652        C  0.45755293  0.53574670  0.44715896     0.83300
O653        O  0.53168702  0.46438811  0.53784996    -0.78800
C654        C  0.47829673  0.55950102  0.54617831     0.83400
C655        C  0.55663313  0.55149210  0.47805456     0.83700
O656        O  0.55231367  0.54990445  0.50281347    -0.81200
O657        O  0.48172193  0.70837341  0.75401931    -0.78700
C658        C  0.54980698  0.69815126  0.80288492     0.82400
O659        O  0.47122588  0.73143460  0.85019775    -0.79800
O660        O  0.55141272  0.78247540  0.81454234    -0.81300
O661        O  0.50731494  0.79010014  0.74344094    -0.81100
O662        O  0.46219689  0.74599219  0.74390098    -0.79700
Zn663      Zn  0.49366702  0.71483797  0.79110315     1.55700
O664        O  0.54494530  0.76930343  0.75059624    -0.81100
Cd665      Cd  0.48144082  0.77165507  0.76868700     1.59700
Cd666      Cd  0.49140090  0.76248387  0.83144440     1.59600
O667        O  0.45654076  0.79895812  0.78616024    -0.81100
O668        O  0.50072599  0.75109873  0.79529032    -1.91600
Cd669      Cd  0.53829206  0.75516773  0.78840271     1.59900
O670        O  0.46419580  0.79259117  0.82901695    -0.81100
O671        O  0.55861160  0.72092845  0.79726739    -0.79700
C672        C  0.45956622  0.71200112  0.83898842     0.82800
C673        C  0.46766986  0.72219920  0.73849537     0.82500
O674        O  0.52533420  0.69308843  0.80103635    -0.78700
C675        C  0.53079233  0.78478188  0.73679825     0.83300
O676        O  0.46491735  0.70490508  0.81555177    -0.78800
C677        C  0.45239563  0.80453980  0.81037419     0.83400
C678        C  0.54587171  0.78787023  0.83836981     0.83700
O679        O  0.52491585  0.77928852  0.84945347    -0.81200
O680        O  0.25544229  0.98727176  0.20511814    -0.78700
C681        C  0.30522071  0.05701746  0.19427294     0.82400
O682        O  0.35135393  0.98154433  0.22966064    -0.79800
O683        O  0.31552989  0.06049784  0.28030435    -0.81300
O684        O  0.24307086  0.01738585  0.28622720    -0.81100
O685        O  0.24283816  0.97076779  0.24368411    -0.79700
Zn686      Zn  0.29181658  0.00123453  0.21171945     1.55700
O687        O  0.25169151  0.05429232  0.26422201    -0.81100
Cd688      Cd  0.26802059  0.99042393  0.26913049     1.59700
Cd689      Cd  0.33071951  0.99953989  0.26023050     1.59600
O690        O  0.28502581  0.96546868  0.29717306    -0.81100
O691        O  0.29513943  0.00908832  0.24821075    -1.91600
Cd692      Cd  0.28988273  0.04706736  0.25198492     1.59900
O693        O  0.32771239  0.97122576  0.28905845    -0.81100
O694        O  0.30032773  0.06599997  0.21722787    -0.79700
C695        C  0.34103309  0.96941889  0.21009107     0.82800
C696        C  0.23896199  0.97446212  0.21911007     0.82500
O697        O  0.30161892  0.03274477  0.18893750    -0.78700
C698        C  0.23697238  0.04068168  0.27939922     0.83300
O699        O  0.31750859  0.97341083  0.20271497    -0.78800
C700        C  0.30913760  0.96023785  0.30174296     0.83400
C701        C  0.33857416  0.05323590  0.28681680     0.83700
O702        O  0.34846606  0.03177152  0.27838177    -0.81200
O703        O  0.19128892  0.80902190  0.97335008    -0.78700
C704        C  0.21985106  0.74954951  0.03316225     0.82400
O705        O  0.23148408  0.86156285  0.02521000    -0.79800
O706        O  0.29814416  0.79645278  0.04342772    -0.81300
O707        O  0.26697988  0.75959103  0.95378897    -0.81100
O708        O  0.21818863  0.80580152  0.93942983    -0.79700
Zn709      Zn  0.21395585  0.80142717  0.00500341     1.55700
O710        O  0.28804003  0.75265089  0.99179964    -0.81100
Cd711      Cd  0.25316684  0.79762597  0.95979866     1.59700
Cd712      Cd  0.26259196  0.84104052  0.00707154     1.59600
O713        O  0.28092466  0.82318973  0.94617245    -0.81100
O714        O  0.25024488  0.80491642  0.99788334    -1.91600
Cd715      Cd  0.27036441  0.77829914  0.01812823     1.59900
O716        O  0.28171158  0.85728630  0.97393229    -0.81100
O717        O  0.24421060  0.75354616  0.03769199    -0.79700
C718        C  0.21117772  0.85155279  0.03626903     0.82800
C719        C  0.19542629  0.81057637  0.94865852     0.82500
O720        O  0.20656263  0.76570137  0.01938155    -0.78700
C721        C  0.28237173  0.74588630  0.96814051     0.83300
O722        O  0.20420851  0.82799923  0.03145028    -0.78800
C723        C  0.28922129  0.84599452  0.95262447     0.83400
C724        C  0.30362971  0.82065895  0.04790101     0.83700
O725        O  0.29152173  0.83910938  0.03604282    -0.81200
C726        C  0.35005526  0.92519077  0.83492567     0.86300
C727        C  0.36980226  0.94321753  0.84974697    -0.53900
C728        C  0.38620618  0.93009705  0.86658509     0.09200
C729        C  0.38151389  0.90026280  0.86723903     0.20200
C730        C  0.36747382  0.90454137  0.82143791    -0.54700
C731        C  0.38397598  0.89141857  0.83817631     0.09300
C732        C  0.33615963  0.91071302  0.85737429    -0.54200
C733        C  0.35228353  0.89740371  0.87387388     0.09900
H734        H  0.37031819  0.96443300  0.84876671     0.14400
H735        H  0.39437584  0.88957338  0.88126242     0.00100
H736        H  0.36552157  0.89975620  0.80068978     0.14700
H737        H  0.31498022  0.91063564  0.85988451     0.14500
C738        C  0.65733677  0.85640951  0.92437977     0.86300
C739        C  0.67093082  0.87290122  0.90259734    -0.53900
C740        C  0.65409305  0.88687894  0.88695662     0.09200
C741        C  0.62494918  0.88355352  0.89475203     0.20200
C742        C  0.64140810  0.87711177  0.93955588    -0.54700
C743        C  0.62422521  0.89108835  0.92426445     0.09300
C744        C  0.63710108  0.83993158  0.90936937    -0.54200
C745        C  0.62000840  0.85372362  0.89434444     0.09900
H746        H  0.69189266  0.87468054  0.89982954     0.14400
H747        H  0.61097376  0.89461050  0.88222562     0.00100
H748        H  0.64363840  0.88081415  0.96049611     0.14700
H749        H  0.63631846  0.81860688  0.91056018     0.14500
C750        C  0.42222008  0.84899460  0.15299981     0.86300
C751        C  0.39949875  0.83712275  0.13627078    -0.53900
C752        C  0.38642777  0.85491643  0.12079055     0.09200
C753        C  0.39753800  0.88318940  0.12343926     0.20200
C754        C  0.43965557  0.86237356  0.13216740    -0.54700
C755        C  0.42709531  0.88082327  0.11714290     0.09300
C756        C  0.40898256  0.87123964  0.16822777    -0.54200
C757        C  0.39661055  0.88930935  0.15312154     0.09900
H758        H  0.39386817  0.81662885  0.13596369     0.14400
H759        H  0.38743438  0.89800984  0.11113767     0.00100
H760        H  0.45989681  0.85689041  0.12904469     0.14700
H761        H  0.40914059  0.87247904  0.18964759     0.14500
C762        C  0.33961955  0.15980369  0.07896212     0.86300
C763        C  0.35610492  0.14151826  0.06082592    -0.53900
C764        C  0.37407221  0.12663970  0.07410472     0.09200
C765        C  0.37436435  0.13123110  0.10398371     0.20200
C766        C  0.32773138  0.14091710  0.09919235    -0.54700
C767        C  0.34566871  0.12616916  0.11250075     0.09300
C768        C  0.36046303  0.17566914  0.09402559    -0.54200
C769        C  0.37910939  0.16112506  0.10640627     0.09900
H770        H  0.35461015  0.13999522  0.03960977     0.14400
H771        H  0.38903167  0.11900315  0.11451617     0.00100
H772        H  0.30677574  0.13872752  0.10228380     0.14700
H773        H  0.36092825  0.19700913  0.09401664     0.14500
C774        C  0.58051785  0.16669282  0.84846486     0.86300
C775        C  0.56324234  0.15305906  0.86914150    -0.53900
C776        C  0.57619519  0.13540812  0.88458967     0.09200
C777        C  0.60574339  0.13344484  0.87862176     0.20200
C778        C  0.60270724  0.17935605  0.86519786    -0.54700
C779        C  0.61602731  0.16194518  0.88077892     0.09300
C780        C  0.59453651  0.14464059  0.83358626    -0.54200
C781        C  0.60719812  0.12695249  0.84902698     0.09900
H782        H  0.54246125  0.15690208  0.87145621     0.14400
H783        H  0.61627254  0.11928340  0.89133400     0.00100
H784        H  0.60807986  0.19992181  0.86522798     0.14700
H785        H  0.59453961  0.14320555  0.81218394     0.14500
C786        C  0.65255986  0.08503123  0.15688122     0.86300
C787        C  0.63616315  0.10636721  0.17018221    -0.53900
C788        C  0.61951276  0.11932826  0.15378595     0.09200
C789        C  0.62070325  0.10983369  0.12484023     0.20200
C790        C  0.63170569  0.06700009  0.14332399    -0.54700
C791        C  0.61495909  0.08007254  0.12652987     0.09300
C792        C  0.66606043  0.09805023  0.13333618    -0.54200
C793        C  0.64977394  0.11114261  0.11674924     0.09900
H794        H  0.63696387  0.11035214  0.19122596     0.14400
H795        H  0.60786250  0.12073908  0.11101487     0.00100
H796        H  0.63055251  0.04587659  0.14541120     0.14700
H797        H  0.68699765  0.09652530  0.12965560     0.14500
O798        O  0.47533657  0.98846754  0.93867342    -0.78700
C799        C  0.52341784  0.06040253  0.95209358     0.82400
O800        O  0.54440994  0.96218316  0.99596124    -0.79800
O801        O  0.53031607  0.04789079  0.03772022    -0.81300
O802        O  0.43902315  0.03091937  0.01680221    -0.81100
O803        O  0.44236076  0.98666864  0.96719459    -0.79700
Zn804      Zn  0.50638150  0.00306464  0.95942179     1.55700
O805        O  0.46923220  0.06229483  0.02054705    -0.81100
Cd806      Cd  0.45958276  0.99932020  0.00182158     1.59700
Cd807      Cd  0.51960791  0.98451689  0.01953131     1.59600
O808        O  0.45506337  0.96905615  0.02828189    -0.81100
O809        O  0.49755859  0.00783918  0.99655365    -1.91600
Cd810      Cd  0.50352130  0.04519891  0.00716205     1.59900
O811        O  0.49562477  0.95888528  0.04095489    -0.81100
O812        O  0.51862020  0.06660356  0.97597136    -0.79700
C813        C  0.54836429  0.96184542  0.97111477     0.82800
C814        C  0.45152574  0.98294605  0.94417947     0.82500
O815        O  0.51898647  0.03729487  0.94333401    -0.78700
C816        C  0.44573961  0.05408812  0.02357927     0.83300
O817        O  0.53572883  0.97680630  0.95549815    -0.78800
C818        C  0.47079616  0.95522708  0.04189146     0.83400
C819        C  0.54416166  0.03138737  0.05044494     0.83700
O820        O  0.54267679  0.00673047  0.04582878    -0.81200
O821        O  0.98122564  0.80045860  0.24508653    -0.78700
C822        C  0.04779554  0.81377044  0.19235042     0.82400
O823        O  0.97036337  0.78101017  0.14754531    -0.79800
O824        O  0.04901791  0.72918461  0.17945906    -0.81300
O825        O  0.00970395  0.71931926  0.25249282    -0.81100
O826        O  0.96265145  0.76176754  0.25475757    -0.79700
Zn827      Zn  0.99267906  0.79549113  0.20735852     1.55700
O828        O  0.04630336  0.74165985  0.24312300    -0.81100
Cd829      Cd  0.98164352  0.73698653  0.22843348     1.59700
Cd830      Cd  0.98871610  0.74892624  0.16560323     1.59600
O831        O  0.95653875  0.70905608  0.21006663    -0.81100
O832        O  0.99946836  0.75931586  0.20178292    -1.91600
Cd833      Cd  0.03747962  0.75631549  0.20616351     1.59900
O834        O  0.96055962  0.71954973  0.16757324    -0.81100
O835        O  0.05706819  0.79092184  0.19655663    -0.79700
C836        C  0.95908302  0.80017746  0.15927093     0.82800
C837        C  0.96792217  0.78570328  0.26045452     0.82500
O838        O  0.02363847  0.81857294  0.19655255    -0.78700
C839        C  0.03359797  0.72540959  0.25741853     0.83300
O840        O  0.96382165  0.80582143  0.18330160    -0.78800
C841        C  0.95045594  0.70554236  0.18573007     0.83400
C842        C  0.04136200  0.72206329  0.15660530     0.83700
O843        O  0.02017455  0.73081956  0.14630600    -0.81200
O844        O  0.79832245  0.25019750  0.97803203    -0.78700
C845        C  0.80524908  0.20043642  0.04837392     0.82400
O846        O  0.77269183  0.15390536  0.97013747    -0.79800
O847        O  0.71903699  0.19044038  0.04805951    -0.81300
O848        O  0.71741609  0.26324700  0.00444479    -0.81100
O849        O  0.76094198  0.26118697  0.95848145    -0.79700
Zn850      Zn  0.79006459  0.21386864  0.99182359     1.55700
O851        O  0.73607056  0.25406507  0.04308897    -0.81100
Cd852      Cd  0.73457612  0.23732840  0.97847146     1.59700
Cd853      Cd  0.74180070  0.17409178  0.98869846     1.59600
O854        O  0.70635392  0.22026652  0.95387227    -0.81100
O855        O  0.75367470  0.21006626  0.99844255    -1.91600
Cd856      Cd  0.74838338  0.21558371  0.03642370     1.59900
O857        O  0.71310979  0.17738845  0.96017470    -0.81100
O858        O  0.78215123  0.20470417  0.05708835    -0.79700
C859        C  0.79281809  0.16441952  0.95928470     0.82800
C860        C  0.78512385  0.26569553  0.96333215     0.82500
O861        O  0.81061441  0.20443278  0.02422766    -0.78700
C862        C  0.72224157  0.26911769  0.02841892     0.83300
O863        O  0.80018290  0.18777138  0.96450674    -0.78800
C864        C  0.70082201  0.19619227  0.94918187     0.83400
C865        C  0.71193908  0.16747759  0.04093795     0.83700
O866        O  0.72179559  0.15644962  0.02048328    -0.81200
O867        O  0.24339907  0.02290074  0.70487160    -0.78700
C868        C  0.19442019  0.95376159  0.69710721     0.82400
O869        O  0.14851919  0.03394591  0.72948323    -0.79800
O870        O  0.18170503  0.95417119  0.78326033    -0.81300
O871        O  0.25626299  0.99892906  0.78565288    -0.81100
O872        O  0.25344511  0.04455859  0.74154231    -0.79700
Zn873      Zn  0.20704216  0.00990853  0.71246189     1.55700
O874        O  0.24575949  0.96017562  0.76784987    -0.81100
Cd875      Cd  0.22984038  0.02457724  0.76820286     1.59700
Cd876      Cd  0.16687030  0.01334873  0.76015145     1.59600
O877        O  0.21205813  0.04955334  0.79570039    -0.81100
O878        O  0.20279719  0.00387897  0.74904298    -1.91600
Cd879      Cd  0.20773503  0.96622026  0.75477479     1.59900
O880        O  0.16947884  0.03975382  0.79083056    -0.81100
O881        O  0.19825303  0.94549027  0.72054200    -0.79700
C882        C  0.15918224  0.04421059  0.70910434     0.82800
C883        C  0.25852983  0.03836178  0.71771519     0.82500
O884        O  0.19792154  0.97781453  0.69117582    -0.78700
C885        C  0.26142026  0.97481407  0.78115178     0.83300
O886        O  0.18207046  0.03753485  0.70181256    -0.78800
C887        C  0.18798293  0.05235121  0.80218049     0.83400
C888        C  0.15797913  0.96066933  0.78774778     0.83700
O889        O  0.14768591  0.98087789  0.77689570    -0.81200
C890        C  0.15975795  0.15677588  0.91894650     0.86300
C891        C  0.14319928  0.13892753  0.93736695    -0.53900
C892        C  0.12593096  0.12270485  0.92439734     0.09200
C893        C  0.12620565  0.12624513  0.89421330     0.20200
C894        C  0.17242885  0.13732617  0.89959888    -0.54700
C895        C  0.15499760  0.12166208  0.88633500     0.09300
C896        C  0.13878715  0.17139438  0.90310035    -0.54200
C897        C  0.12137676  0.15572639  0.89020525     0.09900
H898        H  0.14326503  0.13987032  0.95859221     0.14400
H899        H  0.11184122  0.11377181  0.88341510     0.00100
H900        H  0.19344467  0.13572024  0.89679317     0.14700
H901        H  0.13730305  0.19269535  0.90277179     0.14500
C902        C  0.15097841  0.93038479  0.15890507     0.86300
C903        C  0.13102952  0.94756152  0.14403855    -0.53900
C904        C  0.11646645  0.93424384  0.12571395     0.09200
C905        C  0.12215167  0.90460412  0.12451716     0.20200
C906        C  0.13354424  0.90865454  0.17109090    -0.54700
C907        C  0.11888400  0.89474321  0.15316422     0.09300
C908        C  0.16657167  0.91601683  0.13752106    -0.54200
C909        C  0.15187263  0.90302710  0.11923578     0.09900
H910        H  0.12827669  0.96833672  0.14774570     0.14400
H911        H  0.10976786  0.89432059  0.10972534     0.00100
H912        H  0.13189315  0.90448001  0.19192329     0.14700
H913        H  0.18788904  0.91647398  0.13669749     0.14500
C914        C  0.91957926  0.16826974  0.15213295     0.86300
C915        C  0.93745961  0.15371394  0.13203009    -0.53900
C916        C  0.92471564  0.13488962  0.11747278     0.09200
C917        C  0.89534231  0.13252112  0.12376213     0.20200
C918        C  0.89755497  0.17919025  0.13481925    -0.54700
C919        C  0.88442746  0.16063629  0.12052498     0.09300
C920        C  0.90703903  0.14611656  0.16812398    -0.54200
C921        C  0.89507799  0.12704791  0.15364653     0.09900
H922        H  0.95809209  0.15741311  0.12883234     0.14400
H923        H  0.88499330  0.11744652  0.11169772     0.00100
H924        H  0.89324946  0.19996087  0.13306722     0.14700
H925        H  0.90772179  0.14557658  0.18954857     0.14500
C926        C  0.83812253  0.85429116  0.07914925     0.86300
C927        C  0.82484530  0.87336086  0.09841813    -0.53900
C928        C  0.84169265  0.88999304  0.11124527     0.09200
C929        C  0.87064089  0.88621854  0.10331206     0.20200
C930        C  0.85390931  0.87254002  0.06037304    -0.54700
C931        C  0.87067349  0.88951632  0.07309685     0.09300
C932        C  0.85959851  0.84051942  0.09494403    -0.54200
C933        C  0.87637799  0.85688868  0.10763775     0.09900
H934        H  0.80404933  0.87235209  0.10278708     0.14400
H935        H  0.88449678  0.89949158  0.11387556     0.00100
H936        H  0.85380181  0.87126690  0.03915112     0.14700
H937        H  0.86161088  0.81927710  0.09578682     0.14500
C938        C  0.07414245  0.84550279  0.85004779     0.86300
C939        C  0.09502397  0.83179770  0.86746445    -0.53900
C940        C  0.10888297  0.84847058  0.88347073     0.09200
C941        C  0.10080897  0.87753781  0.88064060     0.20200
C942        C  0.05718168  0.86063230  0.87006373    -0.54700
C943        C  0.07098052  0.87760670  0.88595461     0.09300
C944        C  0.08993820  0.86647695  0.83538167    -0.54200
C945        C  0.10345875  0.88355346  0.85095829     0.09900
H946        H  0.09931109  0.81104064  0.86761792     0.14400
H947        H  0.11217003  0.89128238  0.89334888     0.00100
H948        H  0.03592704  0.85907396  0.87053391     0.14700
H949        H  0.08995650  0.86806558  0.81399545     0.14500
C950        C  0.85053064  0.08723763  0.83543981     0.86300
C951        C  0.86964921  0.10715565  0.82306108    -0.53900
C952        C  0.88410598  0.12156654  0.84080581     0.09200
C953        C  0.87900197  0.11349165  0.86980548     0.20200
C954        C  0.86895375  0.06990915  0.85243136    -0.54700
C955        C  0.88381977  0.08360289  0.87035643     0.09300
C956        C  0.83469425  0.10270669  0.85575564    -0.54200
C957        C  0.84921357  0.11640589  0.87359606     0.09900
H958        H  0.87220378  0.10927078  0.80198529     0.14400
H959        H  0.89059950  0.12425882  0.88483052     0.00100
H960        H  0.87114796  0.04887068  0.85046410     0.14700
H961        H  0.81336994  0.10226986  0.85641193     0.14500
O962        O  0.97744043  0.06593143  0.02115873    -0.78700
C963        C  0.04853438  0.05461774  0.97359107     0.82400
O964        O  0.95215907  0.00758852  0.95059143    -0.79800
O965        O  0.03875224  0.97032589  0.96716482    -0.81300
O966        O  0.02006643  0.98843547  0.05869681    -0.81100
O967        O  0.97544746  0.03761300  0.05448767    -0.79700
Zn968      Zn  0.99157724  0.04513857  0.99021755     1.55700
O969        O  0.05203820  0.98629308  0.02908715    -0.81100
Cd970      Cd  0.98836069  0.00292081  0.03749351     1.59700
Cd971      Cd  0.97438825  0.98468172  0.97676790     1.59600
O972        O  0.95914395  0.97504027  0.04116344    -0.81100
O973        O  0.99701186  0.00841600  0.99946889    -1.91600
Cd974      Cd  0.03492725  0.99982059  0.99456979     1.59900
O975        O  0.94883670  0.96233281  0.00024211    -0.81100
O976        O  0.05591095  0.03163903  0.98015965    -0.79700
C977        C  0.95143299  0.03243166  0.94698547     0.82800
C978        C  0.97190830  0.06056035  0.04505050     0.82500
O979        O  0.02495055  0.06205623  0.97695612    -0.78700
C980        C  0.04349792  0.98253565  0.05240593     0.83300
O981        O  0.96549919  0.04813590  0.96062856    -0.78800
C982        C  0.94595414  0.96076740  0.02523157     0.83400
C983        C  0.02308067  0.95625549  0.95351525     0.83700
O984        O  0.99815686  0.95876319  0.95506562    -0.81200
O985        O  0.20236685  0.26031716  0.97885402    -0.78700
C986        C  0.19064625  0.30702793  0.04914721     0.82400
O987        O  0.22617025  0.35697235  0.97345821    -0.79800
O988        O  0.27641291  0.31728014  0.05267749    -0.81300
O989        O  0.28423973  0.25050470  0.00690007    -0.81100
O990        O  0.24064079  0.25032367  0.96000323    -0.79700
Zn991      Zn  0.20885785  0.29668845  0.99304148     1.55700
O992        O  0.26087662  0.25538356  0.04365205    -0.81100
Cd993      Cd  0.26597818  0.27528329  0.98035237     1.59700
Cd994      Cd  0.25699814  0.33720859  0.99304393     1.59600
O995        O  0.29364797  0.29397871  0.95589573    -0.81100
O996        O  0.24497926  0.30094465  0.00058122    -1.91600
Cd997      Cd  0.24782674  0.29328655  0.03828694     1.59900
O998        O  0.28636679  0.33613449  0.96514336    -0.81100
O999        O  0.21340416  0.30212301  0.05835068    -0.79700
C1000       C  0.20664464  0.34636473  0.96125515     0.82800
C1001       C  0.21656789  0.24522373  0.96480319     0.82500
O1002       O  0.18605388  0.30507196  0.02449737    -0.78700
C1003       C  0.27772747  0.24289643  0.02994277     0.83300
O1004       O  0.19983735  0.32281957  0.96593574    -0.78800
C1005       C  0.29865684  0.31840978  0.95254200     0.83400
C1006       C  0.28481095  0.34013088  0.04721329     0.83700
O1007       O  0.27641153  0.35251604  0.02680246    -0.81200
O1008       O  0.75245330  0.48883209  0.70339008    -0.78700
C1009       C  0.79989638  0.55787831  0.69564350     0.82400
O1010       O  0.84849320  0.48106746  0.72948198    -0.79800
O1011       O  0.80900468  0.55962135  0.78053632    -0.81300
O1012       O  0.74132473  0.50988188  0.78656152    -0.81100
O1013       O  0.74341655  0.46687918  0.74029791    -0.79700
Zn1014     Zn  0.78923480  0.50134945  0.71144395     1.55700
O1015       O  0.74612777  0.54840526  0.76607726    -0.81100
Cd1016     Cd  0.76745584  0.48586648  0.76704833     1.59700
Cd1017     Cd  0.82902786  0.50102105  0.76004214     1.59600
O1018       O  0.78640178  0.45987804  0.79265685    -0.81100
O1019       O  0.79282602  0.50799121  0.74791894    -1.91600
Cd1020     Cd  0.78425670  0.54513712  0.75235467     1.59900
O1021       O  0.82792947  0.47396014  0.79043754    -0.81100
O1022       O  0.79293628  0.56645139  0.71821762    -0.79700
C1023       C  0.83838895  0.46904760  0.70961336     0.82800
C1024       C  0.73778036  0.47346632  0.71669152     0.82500
O1025       O  0.79899921  0.53337382  0.69056308    -0.78700
C1026       C  0.73333037  0.53304670  0.78129554     0.83300
O1027       O  0.81499426  0.47373406  0.70204781    -0.78800
C1028       C  0.81038217  0.45888082  0.80005963     0.83400
C1029       C  0.83308027  0.55565820  0.78578910     0.83700
O1030       O  0.84528667  0.53559678  0.77665633    -0.81200
O1031       O  0.97764160  0.19702065  0.79451879    -0.78700
C1032       C  0.03610676  0.22751526  0.73409081     0.82400
O1033       O  0.02983299  0.23457032  0.84648467    -0.79800
O1034       O  0.04722956  0.30483164  0.78316686    -0.81300
O1035       O  0.95873189  0.27269688  0.74623965    -0.81100
O1036       O  0.94468007  0.22530821  0.79460867    -0.79700
Zn1037     Zn  0.00930822  0.21941252  0.78607831     1.55700
O1038       O  0.99588349  0.29477057  0.73915574    -0.81100
Cd1039     Cd  0.96506640  0.25955180  0.78454266     1.59700
Cd1040     Cd  0.01246274  0.26691200  0.82717278     1.59600
O1041       O  0.95253994  0.28807593  0.80961948    -0.81100
O1042       O  0.00287096  0.25581171  0.79090068    -1.91600
Cd1043     Cd  0.02236091  0.27699986  0.76461181     1.59900
O1044       O  0.98011462  0.28679711  0.84382649    -0.81100
O1045       O  0.04179376  0.25140316  0.73951663    -0.79700
C1046       C  0.04075253  0.21446448  0.83592854     0.82800
C1047       C  0.95351151  0.20214813  0.79813718     0.82500
O1048       O  0.02199847  0.21338403  0.74922712    -0.78700
C1049       C  0.97252744  0.28852679  0.73237729     0.83300
O1050       O  0.03640865  0.20834382  0.81192242    -0.78800
C1051       C  0.95943710  0.29579050  0.83248037     0.83400
C1052       C  0.05259525  0.30877596  0.80757637     0.83700
O1053       O  0.04167460  0.29545279  0.82579395    -0.81200
C1054       C  0.84388779  0.35335479  0.91528253     0.86300
C1055       C  0.85726603  0.37377257  0.93348900    -0.53900
C1056       C  0.87406025  0.39062617  0.92084635     0.09200
C1057       C  0.87554439  0.38579860  0.89083579     0.20200
C1058       C  0.83037747  0.37043726  0.89382797    -0.54700
C1059       C  0.84692907  0.38748817  0.88124029     0.09300
C1060       C  0.86631451  0.34002265  0.90039642    -0.54200
C1061       C  0.88307511  0.35677703  0.88819863     0.09900
H1062       H  0.85484806  0.37371888  0.95475884     0.14400
H1063       H  0.88917086  0.39903277  0.88011893     0.00100
H1064       H  0.80976857  0.37009890  0.88878263     0.14700
H1065       H  0.86908371  0.31886159  0.89998418     0.14500
C1066       C  0.15101023  0.43186257  0.83779968     0.86300
C1067       C  0.13466855  0.40969198  0.82473473    -0.53900
C1068       C  0.12054165  0.39479144  0.84206702     0.09200
C1069       C  0.12448535  0.40306578  0.87125988     0.20200
C1070       C  0.13035920  0.44719480  0.85392942    -0.54700
C1071       C  0.11706791  0.43239868  0.87216708     0.09300
C1072       C  0.16791242  0.41721927  0.85793352    -0.54200
C1073       C  0.15451685  0.40306430  0.87612264     0.09900
H1074       H  0.13381895  0.40551873  0.80384206     0.14400
H1075       H  0.11296931  0.39071393  0.88501094     0.00100
H1076       H  0.12739893  0.46821142  0.85187186     0.14700
H1077       H  0.18913127  0.41759317  0.85708913     0.14500
C1078       C  0.91938141  0.66872746  0.84988228     0.86300
C1079       C  0.89856557  0.68278977  0.86693425    -0.53900
C1080       C  0.88411876  0.66628250  0.88244615     0.09200
C1081       C  0.89150690  0.63700855  0.87953330     0.20200
C1082       C  0.93556821  0.65328572  0.87025667    -0.54700
C1083       C  0.92123608  0.63638414  0.88550603     0.09300
C1084       C  0.90339197  0.64818095  0.83463659    -0.54200
C1085       C  0.88931101  0.63141651  0.84978789     0.09900
H1086       H  0.89510184  0.70371224  0.86759141     0.14400
H1087       H  0.87962851  0.62341187  0.89181398     0.00100
H1088       H  0.95660130  0.65555373  0.87266397     0.14700
H1089       H  0.90322674  0.64693092  0.81321605     0.14500
C1090       C  0.07409129  0.34717697  0.14966992     0.86300
C1091       C  0.05721512  0.36255519  0.12981801    -0.53900
C1092       C  0.07112666  0.37938289  0.11413820     0.09200
C1093       C  0.10095897  0.37890073  0.11925216     0.20200
C1094       C  0.09456937  0.33327031  0.13206380    -0.54700
C1095       C  0.10859486  0.34975387  0.11620072     0.09300
C1096       C  0.09029481  0.36796919  0.16449272    -0.54200
C1097       C  0.10382643  0.38478780  0.14884160     0.09900
H1098       H  0.03606357  0.36067390  0.12846021     0.14400
H1099       H  0.11234814  0.39266091  0.10674650     0.00100
H1100       H  0.09820906  0.31239353  0.13131337     0.14700
H1101       H  0.09063694  0.36963211  0.18587648     0.14500
C1102       C  0.84664641  0.58622697  0.16084585     0.86300
C1103       C  0.86646309  0.56724118  0.14762955    -0.53900
C1104       C  0.88209125  0.57879914  0.12894351     0.09200
C1105       C  0.87742169  0.60866140  0.12614167     0.20200
C1106       C  0.86436302  0.60794318  0.17231045    -0.54700
C1107       C  0.88059488  0.61968148  0.15444731     0.09300
C1108       C  0.83227229  0.59857050  0.13733581    -0.54200
C1109       C  0.84801820  0.61059539  0.11952889     0.09900
H1110       H  0.86878697  0.54681643  0.15253986     0.14400
H1111       H  0.89015764  0.61846308  0.11136420     0.00100
H1112       H  0.86436268  0.61335137  0.19299926     0.14700
H1113       H  0.81106244  0.59801857  0.13499634     0.14500
C1114       C  0.15942284  0.66215461  0.07901942     0.86300
C1115       C  0.17315362  0.64333891  0.09854507    -0.53900
C1116       C  0.15653453  0.62679401  0.11151348     0.09200
C1117       C  0.12722318  0.63067379  0.10409819     0.20200
C1118       C  0.14359779  0.64343476  0.06086950    -0.54700
C1119       C  0.12598546  0.62758718  0.07377842     0.09300
C1120       C  0.13902727  0.67616648  0.09608903    -0.54200
C1121       C  0.12177362  0.66006906  0.10845132     0.09900
H1122       H  0.19396437  0.64268467  0.10265157     0.14400
H1123       H  0.11345045  0.61766060  0.11492366     0.00100
H1124       H  0.14625605  0.64303881  0.03968113     0.14700
H1125       H  0.13731308  0.69743094  0.09704934     0.14500
O1126       O  0.02673026  0.56377445  0.02153944    -0.78700
C1127       C  0.97222798  0.56012490  0.95353593     0.82400
O1128       O  0.95354511  0.50780572  0.04818679    -0.79800
O1129       O  0.96186087  0.47548182  0.95713867    -0.81300
O1130       O  0.05386331  0.48574610  0.97072121    -0.81100
O1131       O  0.05707284  0.53246274  0.01974559    -0.79700
Zn1132     Zn  0.99280440  0.54603527  0.00885030     1.55700
O1133       O  0.02252256  0.48920325  0.94040171    -0.81100
Cd1134     Cd  0.03648265  0.50033013  0.00513967     1.59700
Cd1135     Cd  0.97551858  0.48533922  0.02162667     1.59600
O1136       O  0.03981228  0.47182658  0.03366114    -0.81100
O1137       O  0.99864889  0.50917554  0.99967604    -1.91600
Cd1138     Cd  0.99072538  0.50340819  0.96148003     1.59900
O1139       O  0.99890168  0.45984444  0.04395238    -0.81100
O1140       O  0.97696277  0.53736363  0.94429785    -0.79700
C1141       C  0.95338519  0.53251259  0.05276999     0.82800
C1142       C  0.05014581  0.55579544  0.02554625     0.82500
O1143       O  0.97708473  0.56593521  0.97760534    -0.78700
C1144       C  0.04570665  0.48263561  0.94702641     0.83300
O1145       O  0.96722905  0.54836546  0.03918296    -0.78800
C1146       C  0.02375037  0.45781052  0.04675132     0.83400
C1147       C  0.94810667  0.46126978  0.97243021     0.83700
O1148       O  0.95018706  0.46286890  0.99753420    -0.81200
O1149       O  0.52608751  0.81582601  0.30366016    -0.78700
C1150       C  0.46731103  0.78859436  0.24079427     0.82400
O1151       O  0.47241551  0.77266173  0.35187619    -0.79800
O1152       O  0.45753812  0.70950714  0.28612785    -0.81300
O1153       O  0.54588345  0.74191861  0.25070051    -0.81100
O1154       O  0.56015105  0.78925195  0.29980124    -0.79700
Zn1155     Zn  0.49535036  0.79334885  0.29308552     1.55700
O1156       O  0.50797376  0.72121169  0.24294635    -0.81100
Cd1157     Cd  0.54054894  0.75438808  0.28943133     1.59700
Cd1158     Cd  0.49446650  0.74397633  0.33193787     1.59600
O1159       O  0.55446513  0.72603690  0.31440733    -0.81100
O1160       O  0.50281956  0.75721698  0.29612975    -1.91600
Cd1161     Cd  0.48209872  0.73804744  0.26907168     1.59900
O1162       O  0.52809593  0.72721905  0.34927942    -0.81100
O1163       O  0.46221514  0.76442096  0.24506513    -0.79700
C1164       C  0.46094578  0.79229249  0.34109404     0.82800
C1165       C  0.55053575  0.81154733  0.30606950     0.82500
O1166       O  0.48177413  0.80170039  0.25674137    -0.78700
C1167       C  0.53135879  0.72711765  0.23626507     0.83300
O1168       O  0.46765324  0.80080078  0.31858477    -0.78800
C1169       C  0.54880569  0.71878765  0.33772531     0.83400
C1170       C  0.45579980  0.70175372  0.31006701     0.83700
O1171       O  0.46881664  0.71275048  0.32852594    -0.81200
O1172       O  0.51831809  0.21157958  0.74593024    -0.78700
C1173       C  0.44709861  0.20113120  0.69805330     0.82400
O1174       O  0.52530397  0.23409437  0.64985523    -0.79800
O1175       O  0.44635638  0.28665624  0.68366062    -0.81300
O1176       O  0.48863249  0.29258633  0.75749501    -0.81100
O1177       O  0.53553825  0.24999537  0.75777558    -0.79700
Zn1178     Zn  0.50309990  0.21798569  0.71008232     1.55700
O1179       O  0.45068894  0.27291824  0.74789305    -0.81100
Cd1180     Cd  0.51533869  0.27510630  0.73276751     1.59700
Cd1181     Cd  0.50682900  0.26543919  0.66949407     1.59600
O1182       O  0.53955511  0.30357530  0.71585774    -0.81100
O1183       O  0.49641150  0.25434821  0.70548015    -1.91600
Cd1184     Cd  0.45845022  0.25900476  0.71019458     1.59900
O1185       O  0.53462872  0.29492438  0.67290707    -0.81100
O1186       O  0.43852452  0.22451547  0.70059427    -0.79700
C1187       C  0.53471804  0.21313038  0.66010740     0.82800
C1188       C  0.53197815  0.22552252  0.76185176     0.82500
O1189       O  0.47106841  0.19575637  0.70251945    -0.78700
C1190       C  0.46472634  0.28761713  0.76283377     0.83300
O1191       O  0.52899642  0.20662948  0.68354399    -0.78800
C1192       C  0.54490029  0.30816070  0.69170593     0.83400
C1193       C  0.45377516  0.29255466  0.66042939     0.83700
O1194       O  0.47493071  0.28334478  0.65054399    -0.81200
O1195       O  0.70061900  0.98004113  0.81062364    -0.78700
C1196       C  0.76169552  0.03928795  0.78038351     0.82400
O1197       O  0.65003088  0.03373228  0.77295964    -0.79800
O1198       O  0.71287337  0.04840529  0.70281205    -0.81300
O1199       O  0.74775840  0.95953709  0.73294037    -0.81100
O1200       O  0.70001594  0.94685355  0.78216395    -0.79700
Zn1201     Zn  0.70974590  0.01194891  0.78861427     1.55700
O1202       O  0.75622046  0.99785707  0.71335946    -0.81100
Cd1203     Cd  0.70977475  0.96668692  0.74718908     1.59700
Cd1204     Cd  0.66859907  0.01481873  0.74141216     1.59600
O1205       O  0.68305678  0.95482863  0.71891309    -0.81100
O1206       O  0.70471261  0.00478431  0.75206558    -1.91600
Cd1207     Cd  0.73105056  0.02430685  0.73103728     1.59900
O1208       O  0.64966467  0.98277238  0.72343628    -0.81100
O1209       O  0.75603905  0.04465928  0.75642080    -0.79700
C1210       C  0.66115184  0.04494126  0.79268531     0.82800
C1211       C  0.69667447  0.95581987  0.80550173     0.82500
O1212       O  0.74673630  0.02502057  0.79460788    -0.78700
C1213       C  0.76212116  0.97395898  0.71812899     0.83300
O1214       O  0.68468260  0.03997377  0.79946436    -0.78800
C1215       C  0.65973066  0.96206682  0.71333312     0.83400
C1216       C  0.68864328  0.05340505  0.69852587     0.83700
O1217       O  0.67036595  0.04282173  0.71195878    -0.81200
C1218       C  0.34500401  0.08551479  0.65786942     0.86300
C1219       C  0.36514280  0.06881513  0.64288896    -0.53900
C1220       C  0.38046471  0.08261330  0.62565526     0.09200
C1221       C  0.37457319  0.11241704  0.62522208     0.20200
C1222       C  0.36202074  0.10708434  0.67126275    -0.54700
C1223       C  0.37735349  0.12124517  0.65431919     0.09300
C1224       C  0.32985631  0.10051618  0.63667866    -0.54200
C1225       C  0.34485127  0.11442964  0.61957747     0.09900
H1226       H  0.36739436  0.04784653  0.64579435     0.14400
H1227       H  0.38706287  0.12347952  0.61116815     0.00100
H1228       H  0.36262430  0.11140232  0.69213051     0.14700
H1229       H  0.30854864  0.10032856  0.63538366     0.14500
C1230       C  0.57858705  0.84485250  0.65080393     0.86300
C1231       C  0.56055954  0.86045816  0.63173641    -0.53900
C1232       C  0.57359303  0.87813506  0.61612782     0.09200
C1233       C  0.60360548  0.87786543  0.62004610     0.20200
C1234       C  0.59832547  0.83179654  0.63236728    -0.54700
C1235       C  0.61157024  0.84869017  0.61645091     0.09300
C1236       C  0.59370177  0.86657538  0.66541657    -0.54200
C1237       C  0.60692271  0.88381413  0.64976216     0.09900
H1238       H  0.53953092  0.85836247  0.63019713     0.14400
H1239       H  0.61404348  0.89179725  0.60693535     0.00100
H1240       H  0.60131649  0.81071516  0.63149812     0.14700
H1241       H  0.59315069  0.86872118  0.68674626     0.14500
C1242       C  0.65981795  0.15813700  0.58238563     0.86300
C1243       C  0.67179773  0.14103996  0.60413716    -0.53900
C1244       C  0.65408226  0.12626737  0.61770728     0.09200
C1245       C  0.62559956  0.12877578  0.60720837     0.20200
C1246       C  0.64539013  0.13771015  0.56452956    -0.54700
C1247       C  0.62760833  0.12227091  0.57767761     0.09300
C1248       C  0.63743239  0.17335049  0.59539687    -0.54200
C1249       C  0.61891764  0.15826741  0.60739641     0.09900
H1250       H  0.69272229  0.13974082  0.60784213     0.14400
H1251       H  0.61097939  0.11661680  0.61777536     0.00100
H1252       H  0.64841402  0.13505358  0.54360957     0.14700
H1253       H  0.63595565  0.19460257  0.59429074     0.14500
C1254       C  0.33947097  0.85681486  0.41897669     0.86300
C1255       C  0.35664239  0.87758900  0.43320470    -0.53900
C1256       C  0.37522530  0.88962264  0.41759010     0.09200
C1257       C  0.37384623  0.88016066  0.38859359     0.20200
C1258       C  0.32727236  0.87272599  0.39616962    -0.54700
C1259       C  0.34496827  0.88491810  0.38011876     0.09300
C1260       C  0.35882311  0.83821768  0.40576236    -0.54200
C1261       C  0.37705642  0.84999958  0.39055570     0.09900
H1262       H  0.35414738  0.88266621  0.45375765     0.14400
H1263       H  0.38791923  0.88997807  0.37546186     0.00100
H1264       H  0.30645553  0.87616017  0.39373610     0.14700
H1265       H  0.35851856  0.81707103  0.40876820     0.14500
C1266       C  0.65183231  0.92967604  0.34069046     0.86300
C1267       C  0.63424763  0.90821821  0.32817362    -0.53900
C1268       C  0.61925867  0.89458556  0.34580479     0.09200
C1269       C  0.62218281  0.90465949  0.37453546     0.20200
C1270       C  0.63216083  0.94736774  0.35519020    -0.54700
C1271       C  0.61715207  0.93459473  0.37345780     0.09300
C1272       C  0.66694193  0.91492728  0.36223450    -0.54200
C1273       C  0.65178690  0.90236701  0.38030136     0.09900
H1274       H  0.63337164  0.90330611  0.30745079     0.14400
H1275       H  0.60953198  0.89454737  0.38907707     0.00100
H1276       H  0.63064761  0.96829534  0.35150142     0.14700
H1277       H  0.68825579  0.91476923  0.36327906     0.14500
C1278       C  0.42593740  0.16660337  0.34991350     0.86300
C1279       C  0.40563476  0.18098026  0.36731404    -0.53900
C1280       C  0.39076807  0.16458915  0.38257701     0.09200
C1281       C  0.39729524  0.13520982  0.37892321     0.20200
C1282       C  0.44180134  0.15011466  0.36966603    -0.54700
C1283       C  0.42705742  0.13314523  0.38436142     0.09300
C1284       C  0.40906084  0.14709940  0.33423534    -0.54200
C1285       C  0.39451994  0.13038075  0.34902807     0.09900
H1286       H  0.40226506  0.20193644  0.36761131     0.14400
H1287       H  0.38519573  0.12201025  0.39126872     0.00100
H1288       H  0.46306989  0.15098295  0.37101813     0.14700
H1289       H  0.40908738  0.14613380  0.31280681     0.14500
O1290       O  0.51818984  0.94800062  0.52195833    -0.78700
C1291       C  0.44786662  0.96126032  0.47119691     0.82400
O1292       O  0.54510616  0.00663960  0.45266201    -0.79800
O1293       O  0.45947087  0.04529022  0.46871069    -0.81300
O1294       O  0.47558446  0.02625998  0.55971460    -0.81100
O1295       O  0.52020061  0.97613308  0.55567855    -0.79700
Zn1296     Zn  0.50446670  0.96907862  0.49087960     1.55700
O1297       O  0.44394710  0.02708927  0.52933111    -0.81100
Cd1298     Cd  0.50790257  0.01133242  0.53919384     1.59700
Cd1299     Cd  0.52302849  0.02930147  0.47900106     1.59600
O1300       O  0.53853298  0.03811206  0.54370311    -0.81100
O1301       O  0.49970325  0.00578754  0.50087217    -1.91600
Cd1302     Cd  0.46209404  0.01490869  0.49500230     1.59900
O1303       O  0.54850155  0.05098632  0.50292267    -0.81100
O1304       O  0.44113661  0.98431860  0.47806148    -0.79700
C1305       C  0.54538206  0.98184309  0.44864014     0.82800
C1306       C  0.52383269  0.95328565  0.54594409     0.82500
O1307       O  0.47108787  0.95290422  0.47543109    -0.78700
C1308       C  0.45193579  0.03110817  0.55283471     0.83300
O1309       O  0.53118783  0.96625440  0.46207387    -0.78800
C1310       C  0.55201437  0.05211839  0.52783536     0.83400
C1311       C  0.47573188  0.05923929  0.45582323     0.83700
O1312       O  0.50050251  0.05600620  0.45755285    -0.81200
C1313       C  0.45783975  0.12308577  0.42138682    -0.20500
C1314       C  0.43929522  0.11394796  0.40281824    -0.07100
C1315       C  0.43422977  0.08660287  0.40109967     0.13800
C1316       C  0.44657955  0.06952257  0.41876429    -0.20600
C1317       C  0.46480346  0.07865899  0.43734222    -0.07100
C1318       C  0.47085961  0.10569806  0.43853392     0.13800
C1319       C  0.49042280  0.11624398  0.45825573    -0.23900
H1320       H  0.46210693  0.14393933  0.42248759     0.15100
H1321       H  0.44238495  0.04863070  0.41774757     0.15100
C1322       C  0.41746663  0.07475748  0.37966323    -0.23900
H1323       H  0.49237440  0.13794189  0.45693209     0.05300
H1324       H  0.51001409  0.10755471  0.45455113     0.08500
H1325       H  0.48405144  0.11121611  0.47855824     0.08500
H1326       H  0.42535535  0.08083954  0.36028772     0.08500
H1327       H  0.39677237  0.08079655  0.38182394     0.08500
H1328       H  0.41766726  0.05294366  0.38017377     0.05300
C1329       C  0.57278149  0.93918436  0.39327039    -0.20500
C1330       C  0.59869441  0.94834855  0.39167486    -0.07100
C1331       C  0.60672960  0.96917190  0.40857467     0.13800
C1332       C  0.58861921  0.98026789  0.42621301    -0.20600
C1333       C  0.56291854  0.97059573  0.42821057    -0.07100
C1334       C  0.55486059  0.94978094  0.41137975     0.13800
C1335       C  0.52728361  0.93888022  0.41195035    -0.23900
H1336       H  0.56649697  0.92353449  0.38033720     0.15100
H1337       H  0.59486120  0.99600005  0.43927458     0.15100
C1338       C  0.63462504  0.97895477  0.40937233    -0.23900
H1339       H  0.52400627  0.92398074  0.39622659     0.05300
H1340       H  0.51294554  0.95496716  0.40890689     0.08500
H1341       H  0.52348274  0.92911458  0.43111105     0.08500
H1342       H  0.63952938  0.98889422  0.39061656     0.08500
H1343       H  0.64808460  0.96225168  0.41302814     0.08500
H1344       H  0.63779933  0.99353831  0.42540524     0.05300
C1345       C  0.38469264  0.92732647  0.44786923    -0.20500
C1346       C  0.39414689  0.90983233  0.42856680    -0.07100
C1347       C  0.42140879  0.91088352  0.42237655     0.13800
C1348       C  0.43817594  0.92741218  0.43711037    -0.20600
C1349       C  0.42870792  0.94409493  0.45692665    -0.07100
C1350       C  0.40139459  0.94450338  0.46186594     0.13800
C1351       C  0.38964255  0.96231127  0.48244560    -0.23900
H1352       H  0.36388918  0.92755332  0.45217868     0.15100
H1353       H  0.45896434  0.92783452  0.43261707     0.15100
C1354       C  0.43367536  0.89525113  0.40042289    -0.23900
H1355       H  0.36825701  0.95879224  0.48482097     0.05300
H1356       H  0.39223434  0.98315672  0.47660707     0.08500
H1357       H  0.39920373  0.95884780  0.50183807     0.08500
H1358       H  0.42776121  0.90342161  0.38107617     0.08500
H1359       H  0.42819226  0.87441003  0.40184625     0.08500
H1360       H  0.45545301  0.89619761  0.40108854     0.05300
C1361       C  0.58765762  0.06095950  0.56023083    -0.20500
C1362       C  0.57240146  0.06999073  0.53900563    -0.07100
C1363       C  0.57635832  0.09594084  0.52973325     0.13800
C1364       C  0.59475343  0.11231108  0.54253034    -0.20600
C1365       C  0.60963056  0.10338395  0.56409177    -0.07100
C1366       C  0.60648916  0.07709939  0.57259051     0.13800
C1367       C  0.62378972  0.06536865  0.59364010    -0.23900
H1368       H  0.58501240  0.04093997  0.56701860     0.15100
H1369       H  0.59719064  0.13243839  0.53598366     0.15100
C1370       C  0.56062853  0.10687764  0.50705921    -0.23900
H1371       H  0.62028131  0.04393696  0.59583008     0.05300
H1372       H  0.61997629  0.07443003  0.61308194     0.08500
H1373       H  0.64468218  0.06818917  0.58822423     0.08500
H1374       H  0.53933715  0.10541973  0.51144213     0.08500
H1375       H  0.56502473  0.09582466  0.48872380     0.08500
H1376       H  0.56537929  0.12786629  0.50336697     0.05300
C1377       C  0.56765162  0.89844191  0.57185451    -0.20500
C1378       C  0.55992048  0.89700407  0.59831871    -0.07100
C1379       C  0.54034013  0.91443217  0.60751881     0.13800
C1380       C  0.52853288  0.93203776  0.58979051    -0.20600
C1381       C  0.53558374  0.93273743  0.56305237    -0.07100
C1382       C  0.55541539  0.91556226  0.55395658     0.13800
C1383       C  0.56461746  0.91581576  0.52571339    -0.23900
H1384       H  0.58356730  0.88630298  0.56512892     0.15100
H1385       H  0.51378948  0.94556785  0.59692487     0.15100
C1386       C  0.53295158  0.91593252  0.63626296    -0.23900
H1387       H  0.58109673  0.90197184  0.52247183     0.05300
H1388       H  0.57151523  0.93581382  0.52033456     0.08500
H1389       H  0.54834326  0.90976224  0.51239664     0.08500
H1390       H  0.55079827  0.91924919  0.64842096     0.08500
H1391       H  0.52301688  0.89762943  0.64258714     0.08500
H1392       H  0.51922086  0.93235882  0.64019353     0.05300
C1393       C  0.38987502  0.04990288  0.59057552    -0.20500
C1394       C  0.39953440  0.06921860  0.60790484    -0.07100
C1395       C  0.42681069  0.07472440  0.60807603     0.13800
C1396       C  0.44331672  0.06161265  0.59026108    -0.20600
C1397       C  0.43354414  0.04290382  0.57230658    -0.07100
C1398       C  0.40637980  0.03670916  0.57279421     0.13800
C1399       C  0.39469036  0.01578608  0.55516935    -0.23900
H1400       H  0.36898595  0.04532284  0.59074572     0.15100
H1401       H  0.46417961  0.06633647  0.59024491     0.15100
C1402       C  0.43942367  0.09356504  0.62722424    -0.23900
H1403       H  0.37365064  0.01221182  0.55967638     0.05300
H1404       H  0.40532691  0.99700121  0.55798354     0.08500
H1405       H  0.39585675  0.02188442  0.53421643     0.08500
H1406       H  0.45507425  0.08330687  0.63845084     0.08500
H1407       H  0.42544731  0.10135259  0.64173371     0.08500
H1408       H  0.44828734  0.11026287  0.61630720     0.05300
C1409       C  0.66465916  0.09330071  0.68449887    -0.20500
C1410       C  0.68096387  0.07224142  0.67762377    -0.07100
C1411       C  0.68829198  0.06894329  0.65096989     0.13800
C1412       C  0.67910313  0.08681073  0.63191596    -0.20600
C1413       C  0.66266853  0.10784569  0.63880380    -0.07100
C1414       C  0.65608650  0.11154995  0.66562442     0.13800
C1415       C  0.64139713  0.13520628  0.67537879    -0.23900
H1416       H  0.65918637  0.09599293  0.70497604     0.15100
H1417       H  0.68465763  0.08429415  0.61145667     0.15100
C1418       C  0.70492416  0.04608367  0.64242820    -0.23900
H1419       H  0.65328152  0.14542005  0.69070113     0.05300
H1420       H  0.62254239  0.12887336  0.68429300     0.08500
H1421       H  0.63750542  0.14969131  0.65962736     0.08500
H1422       H  0.69508828  0.02735559  0.64784832     0.08500
H1423       H  0.72442178  0.04715423  0.65219568     0.08500
H1424       H  0.70810342  0.04600685  0.62076246     0.05300
C1425       C  0.60525395  0.92230147  0.67999097    -0.20500
C1426       C  0.61972498  0.90752247  0.66161669    -0.07100
C1427       C  0.64660482  0.91332516  0.65821189     0.13800
C1428       C  0.65862123  0.93223071  0.67454631    -0.20600
C1429       C  0.64457838  0.94558041  0.69430159    -0.07100
C1430       C  0.61723765  0.94121799  0.69634251     0.13800
C1431       C  0.60078034  0.95516245  0.71661326    -0.23900
H1432       H  0.58456137  0.91804639  0.68249253     0.15100
H1433       H  0.67947195  0.93596803  0.67246368     0.15100
C1434       C  0.66321467  0.89852884  0.63878531    -0.23900
H1435       H  0.57999738  0.94850204  0.71602058     0.05300
H1436       H  0.60098832  0.97662082  0.71278037     0.08500
H1437       H  0.60855825  0.95121341  0.73669864     0.08500
H1438       H  0.65606111  0.90189947  0.61841813     0.08500
H1439       H  0.66252702  0.87732845  0.64347388     0.08500
H1440       H  0.68407576  0.90490946  0.63956432     0.05300
C1441       C  0.41403622  0.13493941  0.68389130    -0.20500
C1442       C  0.39575316  0.14193882  0.66432707    -0.07100
C1443       C  0.39424140  0.16849587  0.65640464     0.13800
C1444       C  0.41073344  0.18726802  0.66839922    -0.20600
C1445       C  0.42925355  0.18025151  0.68772425    -0.07100
C1446       C  0.43110439  0.15355317  0.69533592     0.13800
C1447       C  0.45051452  0.14451019  0.71587611    -0.23900
H1448       H  0.41508847  0.11459791  0.69009940     0.15100
H1449       H  0.40944471  0.20761575  0.66226677     0.15100
C1450       C  0.37461969  0.17752222  0.63619158    -0.23900
H1451       H  0.44799857  0.12333429  0.72053067     0.05300
H1452       H  0.44778290  0.15582825  0.73439915     0.08500
H1453       H  0.47084965  0.14722451  0.70858989     0.08500
H1454       H  0.35466903  0.17302258  0.64330094     0.08500
H1455       H  0.37806703  0.16768188  0.61701992     0.08500
H1456       H  0.37581109  0.19904796  0.63282321     0.05300
C1457       C  0.56141412  0.20440153  0.61983869    -0.20500
C1458       C  0.55338376  0.19625466  0.64502210    -0.07100
C1459       C  0.56398390  0.17246373  0.65532854     0.13800
C1460       C  0.58413067  0.15968408  0.64165041    -0.20600
C1461       C  0.59404886  0.16954978  0.61797370    -0.07100
C1462       C  0.58076729  0.19079860  0.60577017     0.13800
C1463       C  0.58531711  0.19887450  0.57752490    -0.23900
H1464       H  0.55244624  0.22146863  0.61083261     0.15100
H1465       H  0.59274548  0.14228133  0.65011798     0.15100
C1466       C  0.55480546  0.16014541  0.68079139    -0.23900
H1467       H  0.56621196  0.19962528  0.56694412     0.05300
H1468       H  0.59758345  0.18474193  0.56647372     0.08500
H1469       H  0.59451181  0.21867762  0.57694707     0.08500
H1470       H  0.53331626  0.15650519  0.67989047     0.08500
H1471       H  0.55977844  0.17306046  0.69776058     0.08500
H1472       H  0.56437261  0.14093252  0.68454750     0.05300
C1473       C  0.59472061  0.83257027  0.31050976    -0.20500
C1474       C  0.56795454  0.83266028  0.31701294    -0.07100
C1475       C  0.55880659  0.85203609  0.33500559     0.13800
C1476       C  0.57632462  0.87112342  0.34486700    -0.20600
C1477       C  0.60272683  0.87169312  0.33742982    -0.07100
C1478       C  0.61225425  0.85143311  0.32073842     0.13800
C1479       C  0.64089502  0.84827521  0.31400868    -0.23900
H1480       H  0.60218241  0.81746693  0.29746638     0.15100
H1481       H  0.56911309  0.88612726  0.35795241     0.15100
C1482       C  0.53077668  0.85270560  0.34450053    -0.23900
H1483       H  0.64721915  0.82801080  0.31893252     0.05300
H1484       H  0.65395973  0.86170329  0.32520916     0.08500
H1485       H  0.64377926  0.85156505  0.29256685     0.08500
H1486       H  0.52545005  0.83353804  0.35348189     0.08500
H1487       H  0.51735137  0.85711723  0.32782546     0.08500
H1488       H  0.52773928  0.86815259  0.35968648     0.05300
C1489       C  0.43866655  0.80869775  0.38162435    -0.20500
C1490       C  0.43879063  0.80566958  0.35412120    -0.07100
C1491       C  0.41737018  0.81544279  0.33912029     0.13800
C1492       C  0.39765446  0.82956150  0.35179192    -0.20600
C1493       C  0.39852755  0.83442463  0.37879403    -0.07100
C1494       C  0.41836260  0.82243431  0.39425827     0.13800
C1495       C  0.41781441  0.82326641  0.42398936    -0.23900
H1496       H  0.45442265  0.80028766  0.39321984     0.15100
H1497       H  0.38097841  0.83595864  0.34065812     0.15100
C1498       C  0.41432278  0.81032209  0.30987245    -0.23900
H1499       H  0.43578214  0.81452897  0.43271559     0.05300
H1500       H  0.40082356  0.81166304  0.43111998     0.08500
H1501       H  0.41615809  0.84370302  0.43135230     0.08500
H1502       H  0.41575240  0.78892481  0.30583309     0.08500
H1503       H  0.42955373  0.82112902  0.29863667     0.08500
H1504       H  0.39501418  0.81706342  0.30229316     0.05300
C1505       C  0.07182433  0.59970538  0.02838183    -0.20500
C1506       C  0.06973202  0.57390611  0.03774508    -0.07100
C1507       C  0.08570002  0.56613586  0.05924008     0.13800
C1508       C  0.10359801  0.58412737  0.07035946    -0.20600
C1509       C  0.10672902  0.60960454  0.06027563    -0.07100
C1510       C  0.09010934  0.61762382  0.03917131     0.13800
C1511       C  0.09016169  0.64528513  0.02870276    -0.23900
H1512       H  0.05913566  0.60582127  0.01234067     0.15100
H1513       H  0.11516963  0.57817945  0.08721890     0.15100
C1514       C  0.08334766  0.53917388  0.07124224    -0.23900
H1515       H  0.07424203  0.64841118  0.01403210     0.05300
H1516       H  0.10884824  0.64969435  0.01856040     0.08500
H1517       H  0.08691174  0.65925072  0.04510858     0.08500
H1518       H  0.08933091  0.52410199  0.05665956     0.08500
H1519       H  0.06277741  0.53553986  0.07746051     0.08500
H1520       H  0.09617449  0.53694889  0.08885294     0.05300
C1521       C  0.92594502  0.57555568  0.10806634    -0.20500
C1522       C  0.90112348  0.56424520  0.11197323    -0.07100
C1523       C  0.89441864  0.54108038  0.09770823     0.13800
C1524       C  0.91203413  0.53110556  0.07888517    -0.20600
C1525       C  0.93636036  0.54319737  0.07410242    -0.07100
C1526       C  0.94372718  0.56526485  0.08963155     0.13800
C1527       C  0.97049178  0.57782140  0.08744858    -0.23900
H1528       H  0.93138093  0.59284219  0.11939504     0.15100
H1529       H  0.90654149  0.51392124  0.06743844     0.15100
C1530       C  0.86867354  0.52686003  0.10144377    -0.23900
H1531       H  0.97352515  0.59334662  0.10259815     0.05300
H1532       H  0.97282401  0.58721690  0.06787561     0.08500
H1533       H  0.98592636  0.56274583  0.09033025     0.08500
H1534       H  0.85205561  0.54068925  0.10025486     0.08500
H1535       H  0.86850518  0.51679478  0.12079567     0.08500
H1536       H  0.86550413  0.51150193  0.08615491     0.05300
C1537       C  0.06554808  0.42526763  0.09950139    -0.20500
C1538       C  0.05840909  0.39879109  0.09641444    -0.07100
C1539       C  0.03899309  0.39195866  0.07747557     0.13800
C1540       C  0.02696007  0.41186888  0.06262204    -0.20600
C1541       C  0.03467161  0.43821175  0.06524278    -0.07100
C1542       C  0.05410806  0.44502144  0.08407328     0.13800
C1543       C  0.06247422  0.47314001  0.08841131    -0.23900
H1544       H  0.08009760  0.43058094  0.11425116     0.15100
H1545       H  0.01235704  0.40660242  0.04790068     0.15100
C1546       C  0.03139353  0.36397307  0.07124309    -0.23900
H1547       H  0.07675342  0.47503968  0.10492457     0.05300
H1548       H  0.04510783  0.48533940  0.09318770     0.08500
H1549       H  0.07208416  0.48082269  0.07041944     0.08500
H1550       H  0.01040110  0.36078483  0.07612416     0.08500
H1551       H  0.04330350  0.34929468  0.08193385     0.08500
H1552       H  0.03424550  0.36022773  0.04985600     0.05300
C1553       C  0.94037737  0.59631652  0.94645506    -0.20500
C1554       C  0.95996228  0.58002090  0.93603699    -0.07100
C1555       C  0.96693777  0.58276277  0.90916108     0.13800
C1556       C  0.95409855  0.60155996  0.89358797    -0.20600
C1557       C  0.93409964  0.61748047  0.90383084    -0.07100
C1558       C  0.92732420  0.61492319  0.93078307     0.13800
C1559       C  0.90721948  0.63189064  0.94412576    -0.23900
H1560       H  0.93498722  0.59436844  0.96703861     0.15100
H1561       H  0.95949006  0.60361887  0.87302532     0.15100
C1562       C  0.98834470  0.56651495  0.89682157    -0.23900
H1563       H  0.89093076  0.61943111  0.95157634     0.05300
H1564       H  0.89891131  0.64686685  0.93095719     0.08500
H1565       H  0.91645901  0.64238855  0.96101021     0.08500
H1566       H  0.98250277  0.54550174  0.89630934     0.08500
H1567       H  0.00682415  0.56885790  0.90827424     0.08500
H1568       H  0.99232127  0.57259008  0.87617920     0.05300
C1569       C  0.07839264  0.46082589  0.88219807    -0.20500
C1570       C  0.09828626  0.44421660  0.89159766    -0.07100
C1571       C  0.10073881  0.44065006  0.91926566     0.13800
C1572       C  0.08342049  0.45356655  0.93643164    -0.20600
C1573       C  0.06342290  0.47006480  0.92713146    -0.07100
C1574       C  0.06087119  0.47362094  0.89943073     0.13800
C1575       C  0.04026568  0.49131037  0.88769470    -0.23900
H1576       H  0.07652250  0.46376647  0.86110597     0.15100
H1577       H  0.08550153  0.45057838  0.95749432     0.15100
C1578       C  0.12226043  0.42444721  0.93136001    -0.23900
H1579       H  0.04223748  0.49293162  0.86594478     0.05300
H1580       H  0.04216101  0.51137892  0.89613532     0.08500
H1581       H  0.02039974  0.48330070  0.89174186     0.08500
H1582       H  0.14145366  0.43180034  0.92446515     0.08500
H1583       H  0.11969681  0.40345256  0.92631565     0.08500
H1584       H  0.12236083  0.42573926  0.95323176     0.05300
C1585       C  0.91837666  0.40984649  0.92661565    -0.20500
C1586       C  0.89210620  0.40923433  0.93482321    -0.07100
C1587       C  0.88435312  0.42578670  0.95596589     0.13800
C1588       C  0.90333330  0.44142638  0.96889590    -0.20600
C1589       C  0.92942350  0.44238664  0.96014917    -0.07100
C1590       C  0.93696302  0.42639418  0.93860483     0.13800
C1591       C  0.96477616  0.42608555  0.92844119    -0.23900
H1592       H  0.92457437  0.39713992  0.91067510     0.15100
H1593       H  0.89737761  0.45408206  0.98500367     0.15100
C1594       C  0.85621203  0.42891112  0.96444936    -0.23900
H1595       H  0.96749639  0.41102545  0.91281129     0.05300
H1596       H  0.97855901  0.42154836  0.94480210     0.08500
H1597       H  0.96989458  0.44538617  0.91968631     0.08500
H1598       H  0.84204434  0.41884295  0.95126155     0.08500
H1599       H  0.85096373  0.45006431  0.96417158     0.08500
H1600       H  0.85380151  0.42134214  0.98482303     0.05300
C1601       C  0.06613110  0.35586433  0.80690411    -0.20500
C1602       C  0.07114064  0.33015417  0.81545167    -0.07100
C1603       C  0.09238217  0.32581530  0.83301716     0.13800
C1604       C  0.10809168  0.34717861  0.84133374    -0.20600
C1605       C  0.10290875  0.37292131  0.83302442    -0.07100
C1606       C  0.08142549  0.37730437  0.81575500     0.13800
C1607       C  0.07372468  0.40468389  0.80758756    -0.23900
H1608       H  0.04953871  0.35931215  0.79393698     0.15100
H1609       H  0.12471918  0.34369829  0.85416926     0.15100
C1610       C  0.09896361  0.29859402  0.84256111    -0.23900
H1611       H  0.05540584  0.40464789  0.79564739     0.05300
H1612       H  0.08933511  0.41376576  0.79543870     0.08500
H1613       H  0.07033728  0.41694347  0.82538981     0.08500
H1614       H  0.10250909  0.28548488  0.82542110     0.08500
H1615       H  0.08259136  0.29059027  0.85450982     0.08500
H1616       H  0.11686539  0.29858175  0.85513379     0.05300
C1617       C  0.94441058  0.31808473  0.87362201    -0.20500
C1618       C  0.94237264  0.31532203  0.84610867    -0.07100
C1619       C  0.92350088  0.33087618  0.83235766     0.13800
C1620       C  0.90572396  0.34623432  0.84673208    -0.20600
C1621       C  0.90639171  0.34680573  0.87422762    -0.07100
C1622       C  0.92680421  0.33378567  0.88779027     0.13800
C1623       C  0.93033904  0.33586806  0.91723215    -0.23900
H1624       H  0.95927728  0.30727662  0.88436303     0.15100
H1625       H  0.89020662  0.35666905  0.83652980     0.15100
C1626       C  0.92148385  0.33155258  0.80263241    -0.23900
H1627       H  0.95039573  0.34328813  0.92170128     0.05300
H1628       H  0.92779497  0.31621574  0.92634731     0.08500
H1629       H  0.91629988  0.34963294  0.92643326     0.08500
H1630       H  0.91444773  0.31234485  0.79495108     0.08500
H1631       H  0.94087567  0.33654361  0.79401347     0.08500
H1632       H  0.90729169  0.34659130  0.79575606     0.05300
C1633       C  0.83172507  0.45018576  0.84299962    -0.20500
C1634       C  0.81849691  0.44017895  0.82084546    -0.07100
C1635       C  0.81468749  0.41276633  0.81845925     0.13800
C1636       C  0.82428016  0.39605055  0.83836332    -0.20600
C1637       C  0.83765660  0.40608376  0.86053827    -0.07100
C1638       C  0.84104033  0.43359698  0.86302705     0.13800
C1639       C  0.85331901  0.44582378  0.88721619    -0.23900
H1640       H  0.83453591  0.47124949  0.84475556     0.15100
H1641       H  0.82158769  0.37498753  0.83650148     0.15100
C1642       C  0.80140422  0.40108172  0.79454862    -0.23900
H1643       H  0.87431068  0.44050712  0.88865226     0.05300
H1644       H  0.84276701  0.43910797  0.90510072     0.08500
H1645       H  0.85231867  0.46760904  0.88669378     0.08500
H1646       H  0.81224294  0.40681649  0.77646912     0.08500
H1647       H  0.78090808  0.40824301  0.79316852     0.08500
H1648       H  0.80078719  0.37928667  0.79546460     0.05300
C1649       C  0.86825197  0.56689603  0.81853448    -0.20500
C1650       C  0.84670526  0.57505529  0.80321130    -0.07100
C1651       C  0.83827056  0.60164462  0.80519408     0.13800
C1652       C  0.85154604  0.61893843  0.82218822    -0.20600
C1653       C  0.87308132  0.61077675  0.83714570    -0.07100
C1654       C  0.88158523  0.58450945  0.83537751     0.13800
C1655       C  0.90530631  0.57538474  0.85048618    -0.23900
H1656       H  0.87481041  0.54671260  0.81722839     0.15100
H1657       H  0.84571061  0.63938899  0.82314474     0.15100
C1658       C  0.81613878  0.61264636  0.78871981    -0.23900
H1659       H  0.90950699  0.55431098  0.84678606     0.05300
H1660       H  0.90197582  0.57802796  0.87195064     0.08500
H1661       H  0.92274133  0.58700614  0.84442187     0.08500
H1662       H  0.79717568  0.60368235  0.79464401     0.08500
H1663       H  0.81989317  0.60891721  0.76747708     0.08500
H1664       H  0.81409938  0.63421361  0.79132928     0.05300
C1665       C  0.14924539  0.32369073  0.10989277    -0.20500
C1666       C  0.12969999  0.33960279  0.09871175    -0.07100
C1667       C  0.12941298  0.34340992  0.07114871     0.13800
C1668       C  0.14930002  0.33218413  0.05567865    -0.20600
C1669       C  0.16939710  0.31680149  0.06686342    -0.07100
C1670       C  0.16893293  0.31208927  0.09443220     0.13800
C1671       C  0.18839697  0.29419699  0.10774008    -0.23900
H1672       H  0.14898943  0.32021070  0.13098143     0.15100
H1673       H  0.14918995  0.33567990  0.03460242     0.15100
C1674       C  0.10755388  0.35814420  0.05770767    -0.23900
H1675       H  0.18368862  0.29123010  0.12890877     0.05300
H1676       H  0.20839855  0.30281091  0.10680411     0.08500
H1677       H  0.18812684  0.27463048  0.09800801     0.08500
H1678       H  0.10766057  0.37901464  0.06390072     0.08500
H1679       H  0.08841977  0.34901055  0.06274641     0.08500
H1680       H  0.10954863  0.35772411  0.03590378     0.05300
C1681       C  0.15895695  0.36448626  0.90544405    -0.20500
C1682       C  0.16792298  0.38949461  0.89853346    -0.07100
C1683       C  0.18856154  0.40108574  0.91369784     0.13800
C1684       C  0.20013243  0.38672473  0.93427914    -0.20600
C1685       C  0.19186867  0.36117930  0.94053413    -0.07100
C1686       C  0.17043563  0.35011796  0.92601315     0.13800
C1687       C  0.15916610  0.32318945  0.93152170    -0.23900
H1688       H  0.14294159  0.35583554  0.89434938     0.15100
H1689       H  0.21613598  0.39553320  0.94536265     0.15100
C1690       C  0.19824660  0.42883290  0.90946963    -0.23900
H1691       H  0.14208883  0.31853651  0.91862453     0.05300
H1692       H  0.15220035  0.32215326  0.95222245     0.08500
H1693       H  0.17414607  0.30787722  0.92775678     0.08500
H1694       H  0.21066712  0.43572750  0.92617056     0.08500
H1695       H  0.21068931  0.42999485  0.89167233     0.08500
H1696       H  0.18156336  0.44258679  0.90796537     0.05300
C1697       C  0.92034911  0.13587711  0.81101765    -0.20500
C1698       C  0.90315972  0.14217921  0.83174907    -0.07100
C1699       C  0.90272443  0.16842737  0.84113926     0.13800
C1700       C  0.91876737  0.18752755  0.82913525    -0.20600
C1701       C  0.93585915  0.18118392  0.80844245    -0.07100
C1702       C  0.93677174  0.15488543  0.79940312     0.13800
C1703       C  0.95426912  0.14687341  0.77688758    -0.23900
H1704       H  0.92080673  0.11585629  0.80371724     0.15100
H1705       H  0.91835942  0.20758315  0.83635732     0.15100
C1706       C  0.88492681  0.17693950  0.86315623    -0.23900
H1707       H  0.95121018  0.12597522  0.77128237     0.05300
H1708       H  0.97518282  0.14923544  0.78258411     0.08500
H1709       H  0.94998627  0.15914889  0.75931852     0.08500
H1710       H  0.89085036  0.16757788  0.88192508     0.08500
H1711       H  0.86442638  0.17173524  0.85826465     0.08500
H1712       H  0.88575042  0.19851426  0.86638256     0.05300
C1713       C  0.94429418  0.06413344  0.91052001    -0.20500
C1714       C  0.93413986  0.04390323  0.92638543    -0.07100
C1715       C  0.90757610  0.03636801  0.92323494     0.13800
C1716       C  0.89175012  0.04973665  0.90488090    -0.20600
C1717       C  0.90179971  0.07027691  0.88933574    -0.07100
C1718       C  0.92864119  0.07710368  0.89175752     0.13800
C1719       C  0.94130258  0.09705824  0.87385150    -0.23900
H1720       H  0.96476083  0.06968156  0.91268838     0.15100
H1721       H  0.87123759  0.04433924  0.90285444     0.15100
C1722       C  0.89555197  0.01494973  0.93979659    -0.23900
H1723       H  0.96287699  0.09806909  0.87692478     0.05300
H1724       H  0.93346843  0.11692862  0.87772849     0.08500
H1725       H  0.93767661  0.09161716  0.85292916     0.08500
H1726       H  0.89772967  0.01986463  0.96104445     0.08500
H1727       H  0.90536141  0.99597083  0.93564650     0.08500
H1728       H  0.87430534  0.01237842  0.93550610     0.05300
C1729       C  0.82517721  0.04667917  0.81957117    -0.20500
C1730       C  0.83114786  0.07361841  0.81623030    -0.07100
C1731       C  0.81458430  0.08840585  0.79890837     0.13800
C1732       C  0.79266618  0.07632847  0.78704911    -0.20600
C1733       C  0.78615701  0.05013139  0.79202276    -0.07100
C1734       C  0.80305543  0.03488396  0.80783993     0.13800
C1735       C  0.79796900  0.00601786  0.81242760    -0.23900
H1736       H  0.83656924  0.03465523  0.83268315     0.15100
H1737       H  0.77987624  0.08774063  0.77439377     0.15100
C1738       C  0.81883450  0.11718833  0.79299050    -0.23900
H1739       H  0.81404307  0.99669864  0.82386955     0.05300
H1740       H  0.79636328  0.99562046  0.79320422     0.08500
H1741       H  0.77959152  0.00327144  0.82377574     0.08500
H1742       H  0.83658951  0.11989347  0.78077273     0.08500
H1743       H  0.82034968  0.12877892  0.81136080     0.08500
H1744       H  0.80232536  0.12561994  0.78146798     0.05300
C1745       C  0.06683051  0.92311574  0.90278517    -0.20500
C1746       C  0.05828288  0.89689803  0.90407654    -0.07100
C1747       C  0.03776169  0.89032278  0.92179771     0.13800
C1748       C  0.02569116  0.91031419  0.93662398    -0.20600
C1749       C  0.03462133  0.93640360  0.93554121    -0.07100
C1750       C  0.05563263  0.94280775  0.91849363     0.13800
C1751       C  0.06594409  0.97054054  0.91616880    -0.23900
H1752       H  0.08231538  0.92836081  0.88914423     0.15100
H1753       H  0.01004630  0.90523656  0.95016559     0.15100
C1754       C  0.02902931  0.86246698  0.92688427    -0.23900
H1755       H  0.08118769  0.97225549  0.90064979     0.05300
H1756       H  0.07507047  0.97687396  0.93504609     0.08500
H1757       H  0.04966861  0.98403342  0.91097834     0.08500
H1758       H  0.04140211  0.84764657  0.91697957     0.08500
H1759       H  0.00837281  0.85988313  0.92030934     0.08500
H1760       H  0.03025363  0.85835161  0.94836157     0.05300
C1761       C  0.91566448  0.90733900  0.06784226    -0.20500
C1762       C  0.88946581  0.90733649  0.05928414    -0.07100
C1763       C  0.88190971  0.92492126  0.03895606     0.13800
C1764       C  0.90093710  0.94149343  0.02749420    -0.20600
C1765       C  0.92701497  0.94165959  0.03646840    -0.07100
C1766       C  0.93442424  0.92429702  0.05691498     0.13800
C1767       C  0.96220363  0.92326449  0.06715966    -0.23900
H1768       H  0.92153188  0.89410938  0.08345434     0.15100
H1769       H  0.89523777  0.95509508  0.01209363     0.15100
C1770       C  0.85369954  0.92768515  0.03037960    -0.23900
H1771       H  0.96485913  0.90743440  0.08197619     0.05300
H1772       H  0.96732606  0.94212738  0.07690879     0.08500
H1773       H  0.97593360  0.91949312  0.05063331     0.08500
H1774       H  0.84111880  0.93136658  0.04781307     0.08500
H1775       H  0.84691025  0.90977571  0.01995167     0.08500
H1776       H  0.85110805  0.94437591  0.01654438     0.05300
C1777       C  0.96829947  0.08110251  0.08923446    -0.20500
C1778       C  0.96100206  0.08125812  0.06253473    -0.07100
C1779       C  0.94230250  0.09989253  0.05375987     0.13800
C1780       C  0.93110461  0.11735754  0.07205875    -0.20600
C1781       C  0.93830267  0.11698890  0.09875800    -0.07100
C1782       C  0.95719062  0.09860108  0.10740685     0.13800
C1783       C  0.96429232  0.09587593  0.13606290    -0.23900
H1784       H  0.98242342  0.06674809  0.09606226     0.15100
H1785       H  0.91643611  0.13120783  0.06551913     0.15100
C1786       C  0.93318539  0.10083816  0.02546010    -0.23900
H1787       H  0.97927674  0.08042828  0.13933877     0.05300
H1788       H  0.94644340  0.09002992  0.14692805     0.08500
H1789       H  0.97230972  0.11458195  0.14398073     0.08500
H1790       H  0.92509103  0.08141573  0.01951108     0.08500
H1791       H  0.94982310  0.10617281  0.01243374     0.08500
H1792       H  0.91758294  0.11572903  0.02247805     0.05300
C1793       C  0.07097932  0.94399375  0.11117733    -0.20500
C1794       C  0.09795096  0.94748804  0.10752092    -0.07100
C1795       C  0.10692801  0.96271718  0.08610656     0.13800
C1796       C  0.08867819  0.97420296  0.06891558    -0.20600
C1797       C  0.06151649  0.97083735  0.07240061    -0.07100
C1798       C  0.05259188  0.95534235  0.09391241     0.13800
C1799       C  0.02392648  0.94957388  0.09829133    -0.23900
H1800       H  0.06427274  0.93224995  0.12763872     0.15100
H1801       H  0.09576098  0.98585485  0.05251649     0.15100
C1802       C  0.13575770  0.96644970  0.08094158    -0.23900
H1803       H  0.02080547  0.93594716  0.11509599     0.05300
H1804       H  0.01557159  0.94015444  0.08037444     0.08500
H1805       H  0.01324732  0.96798216  0.10280379     0.08500
H1806       H  0.14522027  0.94705683  0.07836771     0.08500
H1807       H  0.14491595  0.97702754  0.09770365     0.08500
H1808       H  0.13936342  0.97815481  0.06283479     0.05300
C1809       C  0.08071284  0.18206514  0.89112914    -0.20500
C1810       C  0.09855030  0.16718768  0.87636515    -0.07100
C1811       C  0.09628966  0.16645926  0.84874050     0.13800
C1812       C  0.07689278  0.18163704  0.83639380    -0.20600
C1813       C  0.05962724  0.19773770  0.85096277    -0.07100
C1814       C  0.06121649  0.19727533  0.87888827     0.13800
C1815       C  0.04257402  0.21248053  0.89607360    -0.23900
H1816       H  0.08259433  0.18232105  0.91244016     0.15100
H1817       H  0.07585622  0.18148280  0.81504672     0.15100
C1818       C  0.11506302  0.15067288  0.83221622    -0.23900
H1819       H  0.04590928  0.20848323  0.91735544     0.05300
H1820       H  0.02202689  0.20680988  0.89132108     0.08500
H1821       H  0.04538383  0.23388388  0.89303046     0.08500
H1822       H  0.11338917  0.12954170  0.83730158     0.08500
H1823       H  0.13549063  0.15744250  0.83591053     0.08500
H1824       H  0.11090813  0.15274849  0.81080208     0.05300
C1825       C  0.08031801  0.10658629  0.92974588    -0.20500
C1826       C  0.10658087  0.10547164  0.93805514    -0.07100
C1827       C  0.11367669  0.08748952  0.95815572     0.13800
C1828       C  0.09424311  0.07137544  0.96938714    -0.20600
C1829       C  0.06786835  0.07283195  0.96139669    -0.07100
C1830       C  0.06088862  0.09058603  0.94105466     0.13800
C1831       C  0.03329028  0.09214679  0.93029766    -0.23900
H1832       H  0.07489408  0.12022870  0.91428466     0.15100
H1833       H  0.09968093  0.05759959  0.98472309     0.15100
C1834       C  0.14165074  0.08436679  0.96745710    -0.23900
H1835       H  0.03191566  0.10581070  0.91329207     0.05300
H1836       H  0.01978215  0.09948357  0.94573526     0.08500
H1837       H  0.02674151  0.07244458  0.92342551     0.08500
H1838       H  0.14799921  0.10182114  0.97889992     0.08500
H1839       H  0.15493017  0.08150031  0.95045547     0.08500
H1840       H  0.14385278  0.06711955  0.98065803     0.05300
C1841       C  0.18024611  0.18035596  0.95883211    -0.20500
C1842       C  0.17903996  0.17680495  0.93121638    -0.07100
C1843       C  0.19362098  0.19472364  0.91510607     0.13800
C1844       C  0.20610397  0.21650338  0.92679512    -0.20600
C1845       C  0.20477135  0.22103387  0.95391150    -0.07100
C1846       C  0.19253901  0.20232156  0.97025118     0.13800
C1847       C  0.19266531  0.20531145  0.99987698    -0.23900
H1848       H  0.17102261  0.16667905  0.97204053     0.15100
H1849       H  0.21645001  0.23058360  0.91457613     0.15100
C1850       C  0.19626981  0.19168362  0.88551315    -0.23900
H1851       H  0.18326702  0.18828554  0.00980732     0.05300
H1852       H  0.18169974  0.22318628  0.00566548     0.08500
H1853       H  0.21320043  0.20685005  0.00715155     0.08500
H1854       H  0.17691697  0.19100853  0.87557330     0.08500
H1855       H  0.20756279  0.17378453  0.88073791     0.08500
H1856       H  0.20722853  0.20836331  0.87665148     0.05300
C1857       C  0.28657625  0.04162419  0.67784387    -0.20500
C1858       C  0.28235199  0.04901129  0.70420261    -0.07100
C1859       C  0.30118964  0.06550904  0.71662936     0.13800
C1860       C  0.32240457  0.07530088  0.70191992    -0.20600
C1861       C  0.32556291  0.06962491  0.67485371    -0.07100
C1862       C  0.30785873  0.05112538  0.66316657     0.13800
C1863       C  0.31067768  0.04092822  0.63519163    -0.23900
H1864       H  0.27291664  0.02823686  0.66833520     0.15100
H1865       H  0.33597914  0.08800458  0.71206873     0.15100
C1866       C  0.29924833  0.07343717  0.74526860    -0.23900
H1867       H  0.29460489  0.02709796  0.62980820     0.05300
H1868       H  0.32915275  0.02978688  0.63312163     0.08500
H1869       H  0.31004145  0.05689647  0.62046189     0.08500
H1870       H  0.29934723  0.05572836  0.75796991     0.08500
H1871       H  0.28104709  0.08486981  0.74854990     0.08500
H1872       H  0.31599027  0.08600937  0.75162302     0.05300
C1873       C  0.16617147  0.06002565  0.84496446    -0.20500
C1874       C  0.18078022  0.07026044  0.82391470    -0.07100
C1875       C  0.18673416  0.09734189  0.82336495     0.13800
C1876       C  0.17809007  0.11351746  0.84405484    -0.20600
C1877       C  0.16345852  0.10330845  0.86517298    -0.07100
C1878       C  0.15772209  0.07610878  0.86579075     0.13800
C1879       C  0.14400212  0.06360749  0.88887422    -0.23900
H1880       H  0.16165413  0.03918774  0.84524557     0.15100
H1881       H  0.18243957  0.13438275  0.84358452     0.15100
C1882       C  0.20124141  0.10935795  0.80050667    -0.23900
H1883       H  0.14252242  0.04193895  0.88663723     0.05300
H1884       H  0.12379302  0.07122911  0.89082937     0.08500
H1885       H  0.15527765  0.06773463  0.90713781     0.08500
H1886       H  0.19025016  0.10560369  0.78191196     0.08500
H1887       H  0.22112085  0.10068300  0.79899548     0.08500
H1888       H  0.20354423  0.13094534  0.80286249     0.05300
C1889       C  0.15658469  0.93005028  0.82581903    -0.20500
C1890       C  0.14265796  0.94395425  0.80631447    -0.07100
C1891       C  0.11523935  0.94000520  0.80414031     0.13800
C1892       C  0.10291606  0.92166205  0.82072284    -0.20600
C1893       C  0.11720843  0.90643282  0.83890446    -0.07100
C1894       C  0.14443627  0.91110086  0.84177826     0.13800
C1895       C  0.16186847  0.89558915  0.85998674    -0.23900
H1896       H  0.17755850  0.93315476  0.82793470     0.15100
H1897       H  0.08201061  0.91815140  0.81855209     0.15100
C1898       C  0.09900633  0.95369811  0.78345102    -0.23900
H1899       H  0.17760890  0.88598939  0.84839010     0.05300
H1900       H  0.15141552  0.88000817  0.87069351     0.08500
H1901       H  0.17102266  0.90899878  0.87469713     0.08500
H1902       H  0.10688366  0.94929286  0.76353429     0.08500
H1903       H  0.09931126  0.97522014  0.78695507     0.08500
H1904       H  0.07818050  0.94717235  0.78383083     0.05300
C1905       C  0.80081408  0.32829971  0.92388413    -0.20500
C1906       C  0.82754117  0.33249996  0.93012610    -0.07100
C1907       C  0.83927206  0.31516651  0.94887985     0.13800
C1908       C  0.82462744  0.29429259  0.95934466    -0.20600
C1909       C  0.79850839  0.28935595  0.95192845    -0.07100
C1910       C  0.78631286  0.30708489  0.93417821     0.13800
C1911       C  0.75814701  0.30388001  0.92534879    -0.23900
H1912       H  0.79079272  0.34104272  0.91038488     0.15100
H1913       H  0.83420351  0.28134329  0.97330659     0.15100
C1914       C  0.86743678  0.31686093  0.95831178    -0.23900
H1915       H  0.75206775  0.31947159  0.91133166     0.05300
H1916       H  0.74487233  0.30507050  0.94261467     0.08500
H1917       H  0.75554941  0.28475107  0.91509023     0.08500
H1918       H  0.87909395  0.33289066  0.94974449     0.08500
H1919       H  0.87768560  0.29826469  0.95345341     0.08500
H1920       H  0.86776218  0.31956982  0.98005138     0.05300
C1921       C  0.81962644  0.18543142  0.09315800    -0.20500
C1922       C  0.82595119  0.18968037  0.06643340    -0.07100
C1923       C  0.85149910  0.18247753  0.05759773     0.13800
C1924       C  0.86961798  0.17198684  0.07561185    -0.20600
C1925       C  0.86322450  0.16822702  0.10207437    -0.07100
C1926       C  0.83797796  0.17499701  0.11103725     0.13800
C1927       C  0.83049012  0.17146508  0.13953596    -0.23900
H1928       H  0.80027296  0.19049177  0.10027981     0.15100
H1929       H  0.88933118  0.16749465  0.06918370     0.15100
C1930       C  0.86037746  0.18573710  0.02941858    -0.23900
H1931       H  0.80984802  0.17730855  0.14321252     0.05300
H1932       H  0.84335071  0.18374814  0.15226633     0.08500
H1933       H  0.83265917  0.15056642  0.14522709     0.08500
H1934       H  0.85971635  0.20678158  0.02376286     0.08500
H1935       H  0.84772013  0.17385728  0.01608731     0.08500
H1936       H  0.88086386  0.17897205  0.02649666     0.05300
C1937       C  0.80249742  0.15947478  0.91238310    -0.20500
C1938       C  0.80695528  0.15069593  0.93812230    -0.07100
C1939       C  0.82668097  0.13193021  0.94294645     0.13800
C1940       C  0.84130819  0.12206011  0.92159841    -0.20600
C1941       C  0.83642279  0.13051557  0.89566694    -0.07100
C1942       C  0.81687102  0.14971130  0.89110950     0.13800
C1943       C  0.81077367  0.16079966  0.86424187    -0.23900
H1944       H  0.78779111  0.17443879  0.90887300     0.15100
H1945       H  0.85601987  0.10711354  0.92503204     0.15100
C1946       C  0.83224335  0.12243839  0.97047501    -0.23900
H1947       H  0.81293181  0.18251598  0.86476617     0.05300
H1948       H  0.79026999  0.15577199  0.85865674     0.08500
H1949       H  0.82400886  0.15346762  0.84872544     0.08500
H1950       H  0.81432904  0.11319610  0.97880061     0.08500
H1951       H  0.83822555  0.13925285  0.98311441     0.08500
H1952       H  0.84826327  0.10770584  0.97080275     0.05300
C1953       C  0.09229874  0.83389964  0.18834993    -0.20500
C1954       C  0.06551862  0.83473467  0.18176385    -0.07100
C1955       C  0.05690013  0.85418511  0.16364017     0.13800
C1956       C  0.07497881  0.87275368  0.15377026    -0.20600
C1957       C  0.10146966  0.87252273  0.16136062    -0.07100
C1958       C  0.11037242  0.85211947  0.17814195     0.13800
C1959       C  0.13892297  0.84817957  0.18500393    -0.23900
H1960       H  0.09936017  0.81863289  0.20143279     0.15100
H1961       H  0.06823442  0.88790126  0.14045856     0.15100
C1962       C  0.02891894  0.85515414  0.15392393    -0.23900
H1963       H  0.14189222  0.85118179  0.20650638     0.05300
H1964       H  0.15232265  0.86143388  0.17413710     0.08500
H1965       H  0.14472707  0.82781129  0.17982686     0.08500
H1966       H  0.01552376  0.85967304  0.17051230     0.08500
H1967       H  0.02341683  0.83598711  0.14494275     0.08500
H1968       H  0.02611639  0.87059128  0.13871912     0.05300
C1969       C  0.93432311  0.65929574  0.18987116    -0.20500
C1970       C  0.93191586  0.68402051  0.17784730    -0.07100
C1971       C  0.91312876  0.68706892  0.15729710     0.13800
C1972       C  0.89708142  0.66565668  0.14986833    -0.20600
C1973       C  0.89931071  0.64111336  0.16211801    -0.07100
C1974       C  0.91870032  0.63773144  0.18192898     0.13800
C1975       C  0.92408900  0.61109433  0.19368451    -0.23900
H1976       H  0.94916589  0.65659064  0.20498132     0.15100
H1977       H  0.88248197  0.66817172  0.13452235     0.15100
C1978       C  0.90929435  0.71299506  0.14348555    -0.23900
H1979       H  0.94125565  0.61160705  0.20724070     0.05300
H1980       H  0.92837896  0.59682362  0.17768275     0.08500
H1981       H  0.90702359  0.60408392  0.20519483     0.08500
H1982       H  0.92706778  0.71819326  0.13202141     0.08500
H1983       H  0.90520618  0.72862552  0.15819618     0.08500
H1984       H  0.89255893  0.71226633  0.12939489     0.05300
C1985       C  0.91618735  0.82213533  0.15975685    -0.20500
C1986       C  0.93899954  0.81597918  0.14561315    -0.07100
C1987       C  0.94195949  0.82537306  0.11958762     0.13800
C1988       C  0.92183747  0.84053826  0.10837029    -0.20600
C1989       C  0.89876827  0.84601632  0.12236954    -0.07100
C1990       C  0.89571786  0.83629471  0.14822761     0.13800
C1991       C  0.87073532  0.83924409  0.16377936    -0.23900
H1992       H  0.91376066  0.81476943  0.17967219     0.15100
H1993       H  0.92353802  0.84706158  0.08810952     0.15100
C1994       C  0.96619742  0.81967323  0.10368782    -0.23900
H1995       H  0.86311192  0.81950797  0.16915628     0.05300
H1996       H  0.85502918  0.84937463  0.15268817     0.08500
H1997       H  0.87481236  0.85049275  0.18214069     0.08500
H1998       H  0.96791541  0.79821834  0.10023328     0.08500
H1999       H  0.98384087  0.82690610  0.11440051     0.08500
H2000       H  0.96559138  0.82945619  0.08412841     0.05300
C2001       C  0.07436774  0.68693499  0.15872087    -0.20500
C2002       C  0.05815815  0.70271383  0.14279105    -0.07100
C2003       C  0.06043008  0.70091403  0.11505588     0.13800
C2004       C  0.08030160  0.68510539  0.10431995    -0.20600
C2005       C  0.09782892  0.67116678  0.12054409    -0.07100
C2006       C  0.09441661  0.67171314  0.14800995     0.13800
C2007       C  0.11331479  0.65837791  0.16627930    -0.23900
H2008       H  0.07237122  0.68762991  0.17999687     0.15100
H2009       H  0.08315743  0.68479360  0.08318324     0.15100
C2010       C  0.04309506  0.71641641  0.09673114    -0.23900
H2011       H  0.10758242  0.66051456  0.18729293     0.05300
H2012       H  0.13284100  0.66772492  0.16388433     0.08500
H2013       H  0.11415529  0.63709372  0.16163791     0.08500
H2014       H  0.04540789  0.73775144  0.10074047     0.08500
H2015       H  0.02229547  0.71051434  0.09953652     0.08500
H2016       H  0.04811346  0.71290874  0.07571265     0.05300
C2017       C  0.69102973  0.12569780  0.05639653    -0.20500
C2018       C  0.69218586  0.15328913  0.05745325    -0.07100
C2019       C  0.67487297  0.16663691  0.07493281     0.13800
C2020       C  0.65928752  0.15207174  0.09245750    -0.20600
C2021       C  0.66028281  0.12468933  0.09310764    -0.07100
C2022       C  0.67521359  0.11127777  0.07387478     0.13800
C2023       C  0.67503213  0.08176454  0.07145762    -0.23900
H2024       H  0.70324087  0.11516292  0.04251202     0.15100
H2025       H  0.64751013  0.16223214  0.10687716     0.15100
C2026       C  0.67256557  0.19619216  0.07570217    -0.23900
H2027       H  0.66889381  0.07611290  0.05117939     0.05300
H2028       H  0.66120677  0.07224900  0.08532946     0.08500
H2029       H  0.69503186  0.07405995  0.07527622     0.08500
H2030       H  0.66834996  0.20377863  0.05561362     0.08500
H2031       H  0.69088827  0.20513798  0.08354752     0.08500
H2032       H  0.65638012  0.20268815  0.08878275     0.05300
C2033       C  0.60479550  0.04555464  0.09288161    -0.20500
C2034       C  0.59580367  0.06631801  0.10877549    -0.07100
C2035       C  0.56923676  0.07409334  0.10654055     0.13800
C2036       C  0.55293959  0.06193284  0.08766654    -0.20600
C2037       C  0.56210948  0.04171189  0.07127686    -0.07100
C2038       C  0.58834302  0.03317258  0.07419050     0.13800
C2039       C  0.59948964  0.01195570  0.05681912    -0.23900
H2040       H  0.62508313  0.03946027  0.09457349     0.15100
H2041       H  0.53270848  0.06819811  0.08575078     0.15100
C2042       C  0.55735686  0.09410536  0.12482253    -0.23900
H2043       H  0.62063522  0.00860852  0.06093918     0.05300
H2044       H  0.59747084  0.01764305  0.03577441     0.08500
H2045       H  0.58895480  0.99316234  0.06028454     0.08500
H2046       H  0.56638267  0.11369020  0.12210407     0.08500
H2047       H  0.56003918  0.08753294  0.14543377     0.08500
H2048       H  0.53595266  0.09635458  0.12133612     0.05300
C2049       C  0.64024845  0.11163588  0.81707603    -0.20500
C2050       C  0.62221459  0.10511087  0.83691551    -0.07100
C2051       C  0.61687998  0.07832276  0.84220763     0.13800
C2052       C  0.62966583  0.05880541  0.82736769    -0.20600
C2053       C  0.64730272  0.06558607  0.80732639    -0.07100
C2054       C  0.65282703  0.09224473  0.80225916     0.13800
C2055       C  0.67165265  0.10025604  0.78081524    -0.23900
H2056       H  0.64413528  0.13214341  0.81280823     0.15100
H2057       H  0.62575185  0.03822588  0.83122290     0.15100
C2058       C  0.59676367  0.07018391  0.86227132    -0.23900
H2059       H  0.67340154  0.12195262  0.77919832     0.05300
H2060       H  0.66467246  0.09250657  0.76152345     0.08500
H2061       H  0.69145470  0.09227697  0.78508309     0.08500
H2062       H  0.57750111  0.07866982  0.85684942     0.08500
H2063       H  0.60267574  0.07697287  0.88220842     0.08500
H2064       H  0.59442893  0.04849843  0.86310043     0.05300
C2065       C  0.63383686  0.19099132  0.91612767    -0.20500
C2066       C  0.63811653  0.17044102  0.89811481    -0.07100
C2067       C  0.66352046  0.15957859  0.89599041     0.13800
C2068       C  0.68365708  0.16888460  0.91254105    -0.20600
C2069       C  0.67932721  0.18920960  0.93072741    -0.07100
C2070       C  0.65411995  0.20055976  0.93243105     0.13800
C2071       C  0.64823822  0.22200539  0.95204895    -0.23900
H2072       H  0.61440110  0.19943983  0.91758076     0.15100
H2073       H  0.70304886  0.16030065  0.91121132     0.15100
C2074       C  0.66998951  0.13909922  0.87557389    -0.23900
H2075       H  0.62725877  0.22781040  0.95143484     0.05300
H2076       H  0.66019291  0.23970576  0.94756770     0.08500
H2077       H  0.65277245  0.21512895  0.97232953     0.08500
H2078       H  0.66478510  0.14655041  0.85569702     0.08500
H2079       H  0.65924446  0.12060566  0.87960186     0.08500
H2080       H  0.69124028  0.13434107  0.87550890     0.05300
C2081       C  0.54234104  0.10122977  0.89202083    -0.20500
C2082       C  0.56205081  0.11743902  0.90268402    -0.07100
C2083       C  0.56786358  0.11596070  0.92985766     0.13800
C2084       C  0.55441559  0.09758462  0.94551149    -0.20600
C2085       C  0.53561280  0.08034609  0.93459637    -0.07100
C2086       C  0.52935201  0.08240152  0.90744619     0.13800
C2087       C  0.50874303  0.06525847  0.89460771    -0.23900
H2088       H  0.53762625  0.10282496  0.87120866     0.15100
H2089       H  0.55907817  0.09626125  0.96634733     0.15100
C2090       C  0.58753847  0.13423462  0.94258262    -0.23900
H2091       H  0.50533359  0.07079917  0.87369167     0.05300
H2092       H  0.48985485  0.06724447  0.90526372     0.08500
H2093       H  0.51508338  0.04443895  0.89479080     0.08500
H2094       H  0.58194638  0.15494017  0.93873709     0.08500
H2095       H  0.60742612  0.13063283  0.93464391     0.08500
H2096       H  0.58848285  0.13139691  0.96428331     0.05300
C2097       C  0.57212583  0.21007838  0.82413143    -0.20500
C2098       C  0.56508749  0.18362178  0.82869242    -0.07100
C2099       C  0.54536967  0.17220540  0.81211316     0.13800
C2100       C  0.53524769  0.18669389  0.79099656    -0.20600
C2101       C  0.54342941  0.21247645  0.78559764    -0.07100
C2102       C  0.56173655  0.22456658  0.80294809     0.13800
C2103       C  0.57111498  0.25247611  0.79921596    -0.23900
H2104       H  0.58640545  0.21975878  0.83645563     0.15100
H2105       H  0.52061929  0.17750498  0.77841568     0.15100
C2106       C  0.53454687  0.14462760  0.81579011    -0.23900
H2107       H  0.58574841  0.25840765  0.81441202     0.05300
H2108       H  0.55431978  0.26620170  0.80080879     0.08500
H2109       H  0.58065213  0.25455266  0.77966958     0.08500
H2110       H  0.52368717  0.14311121  0.83457240     0.08500
H2111       H  0.55011705  0.12959235  0.81505970     0.08500
H2112       H  0.52027266  0.13924071  0.80006050     0.05300
C2113       C  0.43205256  0.09912386  0.03632618    -0.20500
C2114       C  0.42613825  0.07211493  0.03570778    -0.07100
C2115       C  0.40261095  0.06322763  0.04791669     0.13800
C2116       C  0.38605359  0.08152566  0.06025217    -0.20600
C2117       C  0.39218513  0.10832054  0.06069233    -0.07100
C2118       C  0.41548772  0.11720036  0.04871301     0.58600
C2119       C  0.42330389  0.14565909  0.04951957    -0.23900
H2120       H  0.44993271  0.10624026  0.02723891     0.15100
H2121       H  0.36824233  0.07486603  0.06975467     0.15100
C2122       C  0.39490475  0.03460837  0.04882780    -0.23900
H2123       H  0.44220899  0.14931154  0.03929609     0.05300
H2124       H  0.42570353  0.15182051  0.07036237     0.08500
H2125       H  0.40800095  0.15763513  0.03969608     0.08500
H2126       H  0.41055044  0.02307754  0.05870057     0.08500
H2127       H  0.39153647  0.02708250  0.02852979     0.08500
H2128       H  0.37646071  0.03146063  0.06002981     0.05300
C2129       C  0.29149603  0.21729449  0.06913466    -0.20500
C2130       C  0.29070648  0.21951834  0.04159633    -0.07100
C2131       C  0.30244302  0.19961378  0.02615116     0.13800
C2132       C  0.31644176  0.17946333  0.03865278    -0.20600
C2133       C  0.31948969  0.17845468  0.06629406    -0.07100
C2134       C  0.30523254  0.19703933  0.08175770     0.13800
C2135       C  0.30410058  0.19627196  0.11162340    -0.23900
H2136       H  0.28175244  0.23199707  0.08105172     0.15100
H2137       H  0.32535535  0.16497180  0.02615777     0.15100
C2138       C  0.30026680  0.19909727  0.99643195    -0.23900
H2139       H  0.29234659  0.21272526  0.11973221     0.05300
H2140       H  0.32378956  0.19798000  0.12069581     0.08500
H2141       H  0.29440777  0.17799221  0.11833775     0.08500
H2142       H  0.31120813  0.21587432  0.98780403     0.08500
H2143       H  0.27930366  0.19990955  0.99042488     0.08500
H2144       H  0.30871399  0.18090824  0.98787986     0.05300
C2145       C  0.42687420  0.90271788  0.07329702    -0.20500
C2146       C  0.44028168  0.89785627  0.09702527    -0.07100
C2147       C  0.46410252  0.91163816  0.10202227     0.13800
C2148       C  0.47365418  0.92952935  0.08328893    -0.20600
C2149       C  0.45992319  0.93486273  0.05992462    -0.07100
C2150       C  0.43609779  0.92116346  0.05485815     0.13800
C2151       C  0.42023924  0.92555140  0.03008142    -0.23900
H2152       H  0.40868846  0.89228506  0.06932883     0.15100
H2153       H  0.49173404  0.94011555  0.08735758     0.15100
C2154       C  0.47919461  0.90891896  0.12743156    -0.23900
H2155       H  0.40317806  0.91194540  0.02877342     0.05300
H2156       H  0.43267698  0.92222189  0.01246160     0.08500
H2157       H  0.41236965  0.94584262  0.02982547     0.08500
H2158       H  0.48896808  0.88956708  0.12794169     0.08500
H2159       H  0.46593556  0.91143630  0.14454466     0.08500
H2160       H  0.49495557  0.92396110  0.12926967     0.05300
C2161       C  0.42905534  0.80526628  0.17744771    -0.20500
C2162       C  0.43715827  0.83138642  0.17277579    -0.07100
C2163       C  0.45707883  0.84201875  0.18965611     0.13800
C2164       C  0.46611532  0.82742281  0.21125082    -0.20600
C2165       C  0.45678876  0.80206628  0.21675344    -0.07100
C2166       C  0.43845390  0.79056567  0.19899283     0.13800
C2167       C  0.42799334  0.76304083  0.20263533    -0.23900
H2168       H  0.41463448  0.79604863  0.16492114     0.15100
H2169       H  0.48087440  0.83611270  0.22403862     0.15100
C2170       C  0.46949148  0.86872732  0.18552400    -0.23900
H2171       H  0.41357186  0.75752225  0.18708761     0.05300
H2172       H  0.41786310  0.76144505  0.22192106     0.08500
H2173       H  0.44431662  0.74871457  0.20157138     0.08500
H2174       H  0.45476248  0.88460748  0.18508661     0.08500
H2175       H  0.48095620  0.86851256  0.16710650     0.08500
H2176       H  0.48356820  0.87389037  0.20150809     0.05300
C2177       C  0.68118171  0.92522011  0.87292074    -0.20500
C2178       C  0.66399449  0.90476225  0.86581886    -0.07100
C2179       C  0.65831129  0.90062501  0.83883804     0.13800
C2180       C  0.66969333  0.91718986  0.81972028    -0.20600
C2181       C  0.68657179  0.93806735  0.82677659    -0.07100
C2182       C  0.69232593  0.94203972  0.85394222     0.13800
C2183       C  0.71072583  0.96343864  0.86324506    -0.23900
H2184       H  0.68587493  0.92807481  0.89360686     0.15100
H2185       H  0.66506015  0.91398224  0.79907908     0.15100
C2186       C  0.64105294  0.87816652  0.83003876    -0.23900
H2187       H  0.71441829  0.96230441  0.88482049     0.05300
H2188       H  0.70210739  0.98301087  0.85923543     0.08500
H2189       H  0.72990643  0.96161758  0.85308912     0.08500
H2190       H  0.62101221  0.88053485  0.83811683     0.08500
H2191       H  0.64948091  0.85935059  0.83703513     0.08500
H2192       H  0.63937210  0.87716403  0.80821186     0.05300
C2193       C  0.58882047  0.90080142  0.95624907    -0.20500
C2194       C  0.60517491  0.90986019  0.93594229    -0.07100
C2195       C  0.60326622  0.93631102  0.92774214     0.13800
C2196       C  0.58455089  0.95276307  0.93959081    -0.20600
C2197       C  0.56808853  0.94364533  0.95983729    -0.07100
C2198       C  0.57027404  0.91724630  0.96823148     0.13800
C2199       C  0.55249579  0.90593577  0.98907554    -0.23900
H2200       H  0.59039471  0.88053172  0.96257874     0.15100
H2201       H  0.58302908  0.97304463  0.93329244     0.15100
C2202       C  0.62172083  0.94770748  0.90757606    -0.23900
H2203       H  0.55591383  0.88459785  0.99198387     0.05300
H2204       H  0.53166688  0.90855104  0.98315738     0.08500
H2205       H  0.55613389  0.91583921  0.00826165     0.08500
H2206       H  0.61859311  0.93830273  0.88810733     0.08500
H2207       H  0.64231364  0.94470728  0.91406673     0.08500
H2208       H  0.61866510  0.96914082  0.90498620     0.05300
C2209       C  0.39206129  0.96175290  0.90323951    -0.20500
C2210       C  0.40356144  0.94400396  0.88559526    -0.07100
C2211       C  0.43090870  0.93985235  0.88657076     0.13800
C2212       C  0.44605098  0.95336955  0.90547451    -0.20600
C2213       C  0.43450396  0.97069601  0.92366788    -0.07100
C2214       C  0.40706382  0.97506481  0.92234239     0.13800
C2215       C  0.39339460  0.99408387  0.94048158    -0.23900
H2216       H  0.37104292  0.96486984  0.90231418     0.15100
H2217       H  0.46701351  0.94995650  0.90638309     0.15100
C2218       C  0.44431985  0.92184749  0.86727957    -0.23900
H2219       H  0.37234935  0.99637586  0.93521251     0.05300
H2220       H  0.40284908  0.01372842  0.93916109     0.08500
H2221       H  0.39420719  0.98689339  0.96110821     0.08500
H2222       H  0.44024560  0.92850670  0.84686353     0.08500
H2223       H  0.43721902  0.90139710  0.86972881     0.08500
H2224       H  0.46593392  0.92177613  0.87018646     0.05300
C2225       C  0.32966203  0.96502095  0.81167947    -0.20500
C2226       C  0.32953880  0.93772278  0.81649358    -0.07100
C2227       C  0.30822251  0.92271753  0.80585392     0.13800
C2228       C  0.28685364  0.93557407  0.79434141    -0.20600
C2229       C  0.28587422  0.96296670  0.79207892    -0.07100
C2230       C  0.30822698  0.97781012  0.79981708     0.13800
C2231       C  0.31009599  0.00704482  0.79531638    -0.23900
H2232       H  0.34629045  0.97688865  0.81731880     0.15100
H2233       H  0.27035405  0.92380286  0.78758610     0.15100
C2234       C  0.30613780  0.89309422  0.80676046    -0.23900
H2235       H  0.32967580  0.01502249  0.80087249     0.05300
H2236       H  0.29536443  0.01747897  0.80746895     0.08500
H2237       H  0.30688068  0.01133941  0.77409625     0.08500
H2238       H  0.28869202  0.88733836  0.81851942     0.08500
H2239       H  0.32326150  0.88313179  0.81528484     0.08500
H2240       H  0.30368432  0.88536794  0.78639665     0.05300
C2241       C  0.17922447  0.72300740  0.03808692    -0.20500
C2242       C  0.20607352  0.72579742  0.04374873    -0.07100
C2243       C  0.21849914  0.70579679  0.05859488     0.13800
C2244       C  0.20347756  0.68465321  0.06830365    -0.20600
C2245       C  0.17608433  0.68273737  0.06418804    -0.07100
C2246       C  0.16415067  0.70218645  0.04785408     0.13800
C2247       C  0.13536182  0.70291094  0.04055048    -0.23900
H2248       H  0.16938223  0.73765263  0.02615320     0.15100
H2249       H  0.21371279  0.67000090  0.07952017     0.15100
C2250       C  0.24752644  0.70632602  0.06458854    -0.23900
H2251       H  0.13325277  0.70175907  0.01876833     0.05300
H2252       H  0.12672035  0.72169282  0.04746063     0.08500
H2253       H  0.12345172  0.68705136  0.04900438     0.08500
H2254       H  0.25249572  0.72400864  0.07647238     0.08500
H2255       H  0.25884763  0.70632360  0.04591462     0.08500
H2256       H  0.25382871  0.68891693  0.07612602     0.05300
C2257       C  0.32052471  0.85010925  0.08369967    -0.20500
C2258       C  0.32461110  0.82817358  0.06729512    -0.07100
C2259       C  0.34899851  0.81504671  0.06886412     0.13800
C2260       C  0.36869099  0.82460441  0.08603399    -0.20600
C2261       C  0.36470455  0.84665601  0.10233458    -0.07100
C2262       C  0.33987998  0.85911122  0.10156973     0.13800
C2263       C  0.33281840  0.88068466  0.12062024    -0.23900
H2264       H  0.30174187  0.86000634  0.08289722     0.15100
H2265       H  0.38749831  0.81475886  0.08668335     0.15100
C2266       C  0.35475718  0.79140640  0.05195827    -0.23900
H2267       H  0.31187272  0.88636547  0.11876518     0.05300
H2268       H  0.34461788  0.89856668  0.11691708     0.08500
H2269       H  0.33601309  0.87377046  0.14109884     0.08500
H2270       H  0.35235225  0.79649960  0.03080367     0.08500
H2271       H  0.34122340  0.77507930  0.05710223     0.08500
H2272       H  0.37511852  0.78426282  0.05492177     0.05300
C2273       C  0.15159186  0.83171861  0.94301081    -0.20500
C2274       C  0.17332638  0.81934636  0.93111434    -0.07100
C2275       C  0.17329538  0.81645036  0.90323311     0.13800
C2276       C  0.15199053  0.82611410  0.88841184    -0.20600
C2277       C  0.13082523  0.83898212  0.90041975    -0.07100
C2278       C  0.13050295  0.84156666  0.92809204     0.13800
C2279       C  0.10757259  0.85389971  0.94208133    -0.23900
H2280       H  0.15112849  0.83406451  0.96424568     0.15100
H2281       H  0.15195694  0.82392892  0.86713548     0.15100
C2282       C  0.19525366  0.80297152  0.88876340    -0.23900
H2283       H  0.10577748  0.87484355  0.93645897     0.05300
H2284       H  0.10989023  0.85308928  0.96385544     0.08500
H2285       H  0.08920519  0.84330748  0.93677407     0.08500
H2286       H  0.19781688  0.78274234  0.89648247     0.08500
H2287       H  0.21375137  0.81432191  0.89115129     0.08500
H2288       H  0.19119181  0.80143843  0.86726958     0.05300
C2289       C  0.30910606  0.84852555  0.90818788    -0.20500
C2290       C  0.30779484  0.85897082  0.93391145    -0.07100
C2291       C  0.32483556  0.88012391  0.94067416     0.13800
C2292       C  0.34111815  0.89115193  0.92109025    -0.20600
C2293       C  0.34110594  0.88125849  0.89524608    -0.07100
C2294       C  0.32566411  0.85906607  0.88905604     0.13800
C2295       C  0.32579703  0.84621622  0.86221980    -0.23900
H2296       H  0.29679775  0.83200133  0.90256417     0.15100
H2297       H  0.35302327  0.90829552  0.92562469     0.15100
C2298       C  0.32615641  0.89117306  0.96822761    -0.23900
H2299       H  0.34041559  0.85496629  0.84871374     0.05300
H2300       H  0.33078102  0.82510886  0.86434781     0.08500
H2301       H  0.30605647  0.84786080  0.85304612     0.08500
H2302       H  0.33118434  0.87533748  0.98238825     0.08500
H2303       H  0.30703310  0.90000901  0.97358870     0.08500
H2304       H  0.34137117  0.90677692  0.97003990     0.05300
C2305       C  0.17511002  0.85247619  0.06924049    -0.20500
C2306       C  0.19502467  0.86645942  0.05581800    -0.07100
C2307       C  0.19920374  0.89320891  0.06245570     0.13800
C2308       C  0.18378555  0.90475857  0.08225934    -0.20600
C2309       C  0.16454782  0.89040861  0.09605826    -0.07100
C2310       C  0.16020891  0.86386648  0.08940755     0.13800
C2311       C  0.14134041  0.84675082  0.10457885    -0.23900
H2312       H  0.17159407  0.83197405  0.06464883     0.15100
H2313       H  0.18730738  0.92509849  0.08759599     0.15100
C2314       C  0.21997431  0.90976856  0.04934582    -0.23900
H2315       H  0.12088806  0.85320469  0.10127831     0.05300
H2316       H  0.14613433  0.84751549  0.12592295     0.08500
H2317       H  0.14239657  0.82587927  0.09826553     0.08500
H2318       H  0.21637776  0.91045616  0.02774889     0.08500
H2319       H  0.23969988  0.90151163  0.05343298     0.08500
H2320       H  0.21996356  0.93030751  0.05679394     0.05300
C2321       C  0.20832691  0.97467340  0.18126554    -0.20500
C2322       C  0.21460239  0.96441568  0.20610321    -0.07100
C2323       C  0.19763664  0.94534680  0.21725540     0.13800
C2324       C  0.17588876  0.93628616  0.20261236    -0.20600
C2325       C  0.17038155  0.94541459  0.17686570    -0.07100
C2326       C  0.18684492  0.96566689  0.16652595     0.13800
C2327       C  0.18292836  0.97792954  0.13964611    -0.23900
H2328       H  0.22064826  0.98993203  0.17294611     0.15100
H2329       H  0.16428661  0.92090805  0.21129787     0.15100
C2330       C  0.20261921  0.93349430  0.24407276    -0.23900
H2331       H  0.19908308  0.99169050  0.13449902     0.05300
H2332       H  0.16478596  0.98976994  0.13941968     0.08500
H2333       H  0.18245811  0.96287065  0.12389329     0.08500
H2334       H  0.20157553  0.94896149  0.25949263     0.08500
H2335       H  0.22219646  0.92400518  0.24445953     0.08500
H2336       H  0.18783181  0.91824043  0.24914814     0.05300
C2337       C  0.34256781  0.11250282  0.15925314    -0.20500
C2338       C  0.33734758  0.10678185  0.13274463    -0.07100
C2339       C  0.32205368  0.08434080  0.12639691     0.13800
C2340       C  0.31187079  0.06864034  0.14678809    -0.20600
C2341       C  0.31617934  0.07483892  0.17352765    -0.07100
C2342       C  0.33221843  0.09697799  0.17972314     0.13800
C2343       C  0.33910784  0.10427755  0.20775958    -0.23900
H2344       H  0.35421379  0.12975853  0.16399068     0.15100
H2345       H  0.30016245  0.05153245  0.14166352     0.15100
C2346       C  0.31620654  0.07622780  0.09835757    -0.23900
H2347       H  0.35299100  0.12114152  0.20866405     0.05300
H2348       H  0.34859576  0.08739285  0.21777098     0.08500
H2349       H  0.32117127  0.11013050  0.21859481     0.08500
H2350       H  0.32389378  0.05614528  0.09484136     0.08500
H2351       H  0.32518529  0.08943302  0.08356026     0.08500
H2352       H  0.29465720  0.07609950  0.09505873     0.05300
C2353       C  0.31703836  0.92293610  0.36644682    -0.20500
C2354       C  0.33607768  0.90412400  0.35950900    -0.07100
C2355       C  0.34463108  0.90317859  0.33299147     0.13800
C2356       C  0.33541592  0.92179212  0.31484261    -0.20600
C2357       C  0.31654684  0.94046699  0.32182357    -0.07100
C2358       C  0.30677114  0.94069520  0.34784078     0.13800
C2359       C  0.28606135  0.95997768  0.35622916    -0.23900
H2360       H  0.31005462  0.92370069  0.38660002     0.15100
H2361       H  0.34245120  0.92130556  0.29467823     0.15100
C2362       C  0.36157203  0.88142891  0.32286806    -0.23900
H2363       H  0.28121303  0.95793838  0.37747278     0.05300
H2364       H  0.26778240  0.95651354  0.34474137     0.08500
H2365       H  0.29308853  0.98036204  0.35283373     0.08500
H2366       H  0.35105938  0.86261495  0.32609713     0.08500
H2367       H  0.38091821  0.88167701  0.33281002     0.08500
H2368       H  0.36526155  0.88314926  0.30135522     0.05300
C2369       C  0.37674149  0.95645852  0.17960086    -0.20500
C2370       C  0.35588412  0.94918268  0.19599736    -0.07100
C2371       C  0.34806841  0.92262658  0.19749382     0.13800
C2372       C  0.36130438  0.90386983  0.18247627    -0.20600
C2373       C  0.38194393  0.91098075  0.16568239    -0.07100
C2374       C  0.38993955  0.93763543  0.16433516     0.13800
C2375       C  0.41262207  0.94688052  0.14781038    -0.23900
H2376       H  0.38258958  0.97693668  0.17851393     0.15100
H2377       H  0.35578028  0.88334630  0.18413696     0.15100
C2378       C  0.32616042  0.91393995  0.21546207    -0.23900
H2379       H  0.40567777  0.96168437  0.13335527     0.05300
H2380       H  0.42196250  0.93080938  0.13677149     0.08500
H2381       H  0.42778441  0.95601908  0.16070803     0.08500
H2382       H  0.30746322  0.92329705  0.20940157     0.08500
H2383       H  0.33084059  0.91961049  0.23612242     0.08500
H2384       H  0.32320774  0.89231460  0.21483852     0.05300
C2385       C  0.39398747  0.09257944  0.31837811    -0.20500
C2386       C  0.38006080  0.10847825  0.33615006    -0.07100
C2387       C  0.35275038  0.10504157  0.33870684     0.13800
C2388       C  0.33999755  0.08615156  0.32297159    -0.20600
C2389       C  0.35384721  0.07062324  0.30471340    -0.07100
C2390       C  0.38138555  0.07354376  0.30284318     0.13800
C2391       C  0.39758012  0.05772664  0.28374549    -0.23900
H2392       H  0.41495512  0.09554617  0.31623049     0.15100
H2393       H  0.31890163  0.08389262  0.32454515     0.15100
C2394       C  0.33672906  0.12227663  0.35661567    -0.23900
H2395       H  0.41859020  0.06362989  0.28422000     0.05300
H2396       H  0.39023560  0.06068128  0.26332179     0.08500
H2397       H  0.39657979  0.03657990  0.28895169     0.08500
H2398       H  0.33970994  0.14319846  0.35125615     0.08500
H2399       H  0.34253909  0.11917176  0.37745000     0.08500
H2400       H  0.31542634  0.11784404  0.35497631     0.05300
C2401       C  0.56958268  0.79881848  0.71068558    -0.20500
C2402       C  0.54220458  0.79744688  0.71290307    -0.07100
C2403       C  0.52665464  0.80821897  0.69238690     0.13800
C2404       C  0.53881758  0.82204493  0.67179957    -0.20600
C2405       C  0.56624163  0.82556933  0.67068432    -0.07100
C2406       C  0.58187935  0.81219749  0.68988287     0.13800
C2407       C  0.61161984  0.81163025  0.68921082    -0.23900
H2408       H  0.58162645  0.78974302  0.72575718     0.15100
H2409       H  0.52625749  0.83030333  0.65693345     0.15100
C2410       C  0.49718157  0.80504677  0.69153476    -0.23900
H2411       H  0.61989434  0.80053714  0.70613013     0.05300
H2412       H  0.62023404  0.83156800  0.69032549     0.08500
H2413       H  0.61856009  0.80152126  0.67121713     0.08500
H2414       H  0.48802563  0.81605439  0.70798461     0.08500
H2415       H  0.49192864  0.78389371  0.69276828     0.08500
H2416       H  0.48860512  0.81278724  0.67295023     0.05300
C2417       C  0.43442093  0.84907362  0.80188822    -0.20500
C2418       C  0.43394362  0.82606632  0.81710391    -0.07100
C2419       C  0.41649719  0.82448553  0.83874120     0.13800
C2420       C  0.40044881  0.84604809  0.84477680    -0.20600
C2421       C  0.40108144  0.86918559  0.82976111    -0.07100
C2422       C  0.41841890  0.87070770  0.80796917     0.13800
C2423       C  0.42126870  0.89532276  0.79169901    -0.23900
H2424       H  0.44791142  0.85036512  0.78544781     0.15100
H2425       H  0.38718183  0.84476952  0.86138846     0.15100
C2426       C  0.41405690  0.79990877  0.85514604    -0.23900
H2427       H  0.43799745  0.89395211  0.77778120     0.05300
H2428       H  0.42484892  0.91251282  0.80470857     0.08500
H2429       H  0.40344097  0.89859275  0.77963999     0.08500
H2430       H  0.43257612  0.79627611  0.86607775     0.08500
H2431       H  0.40949109  0.78284700  0.84221145     0.08500
H2432       H  0.39812319  0.80153852  0.86995147     0.05300
C2433       C  0.55550442  0.82365174  0.87086319    -0.20500
C2434       C  0.56476605  0.80477657  0.85291471    -0.07100
C2435       C  0.59214639  0.80311989  0.84808397     0.13800
C2436       C  0.60920121  0.82065771  0.86072756    -0.20600
C2437       C  0.60002888  0.83955920  0.87846557    -0.07100
C2438       C  0.57290580  0.84097693  0.88386558     0.13800
C2439       C  0.56249072  0.85981409  0.90415281    -0.23900
H2440       H  0.53463047  0.82487279  0.87468823     0.15100
H2441       H  0.63015204  0.81907170  0.85742885     0.15100
C2442       C  0.60396165  0.78215914  0.83067123    -0.23900
H2443       H  0.54088314  0.85799687  0.90636469     0.05300
H2444       H  0.56703674  0.88030889  0.89827197     0.08500
H2445       H  0.57166003  0.85563385  0.92357367     0.08500
H2446       H  0.59860106  0.78553227  0.80973348     0.08500
H2447       H  0.59706584  0.76244390  0.83703273     0.08500
H2448       H  0.62574042  0.78221253  0.83172701     0.05300
C2449       C  0.42189163  0.32918752  0.65945173    -0.20500
C2450       C  0.43679070  0.31074182  0.64520411    -0.07100
C2451       C  0.43324103  0.30883060  0.61759946     0.13800
C2452       C  0.41400301  0.32431088  0.60541089    -0.20600
C2453       C  0.39861245  0.34214421  0.61982595    -0.07100
C2454       C  0.40285005  0.34484564  0.64716821     0.13800
C2455       C  0.38622229  0.36275426  0.66381598    -0.23900
H2456       H  0.42467442  0.33089340  0.68061188     0.15100
H2457       H  0.41048875  0.32206373  0.58440886     0.15100
C2458       C  0.44864133  0.28979959  0.60098268    -0.23900
H2459       H  0.39113253  0.36107592  0.68510796     0.05300
H2460       H  0.36520318  0.35751561  0.66131632     0.08500
H2461       H  0.38941712  0.38349895  0.65807832     0.08500
H2462       H  0.44554733  0.26945292  0.60821986     0.08500
H2463       H  0.46983326  0.29486633  0.60185086     0.08500
H2464       H  0.44252496  0.29040350  0.57993598     0.05300
C2465       C  0.43698768  0.42392611  0.55190537    -0.20500
C2466       C  0.42770549  0.44514749  0.53694359    -0.07100
C2467       C  0.40013818  0.44860564  0.53446502     0.13800
C2468       C  0.38298021  0.43057472  0.54666489    -0.20600
C2469       C  0.39247417  0.40961168  0.56185281    -0.07100
C2470       C  0.41990681  0.40627053  0.56434245     0.13800
C2471       C  0.43158686  0.38344259  0.57895315    -0.23900
H2472       H  0.45795806  0.42112365  0.55409570     0.15100
H2473       H  0.36195010  0.43297633  0.54456196     0.15100
C2474       C  0.38847655  0.47081543  0.51875042    -0.23900
H2475       H  0.42687721  0.38477088  0.60020301     0.05300
H2476       H  0.45331334  0.38298227  0.57735882     0.08500
H2477       H  0.42389772  0.36491623  0.57036479     0.08500
H2478       H  0.39586358  0.47018790  0.49818225     0.08500
H2479       H  0.39366502  0.48992179  0.52801461     0.08500
H2480       H  0.36671763  0.46958193  0.51794808     0.05300
C2481       C  0.56936062  0.42287825  0.40196677    -0.20500
C2482       C  0.56373409  0.39627941  0.40625881    -0.07100
C2483       C  0.54542957  0.38928516  0.42604076     0.13800
C2484       C  0.53301730  0.40919699  0.44053830    -0.20600
C2485       C  0.53849536  0.43592399  0.43609875    -0.07100
C2486       C  0.55704241  0.44278219  0.41639813     0.13800
C2487       C  0.56464928  0.47087967  0.41060212    -0.23900
H2488       H  0.58325769  0.42823195  0.38674240     0.15100
H2489       H  0.51911564  0.40369554  0.45572474     0.15100
C2490       C  0.53910072  0.36124552  0.43325127    -0.23900
H2491       H  0.58032339  0.47218502  0.39547638     0.05300
H2492       H  0.57218220  0.48052364  0.42879338     0.08500
H2493       H  0.54746215  0.48175884  0.40282586     0.08500
H2494       H  0.55109664  0.34666871  0.42255896     0.08500
H2495       H  0.51806317  0.35716109  0.42910797     0.08500
H2496       H  0.54286447  0.35826736  0.45462656     0.05300
C2497       C  0.42594736  0.64174906  0.34383708    -0.20500
C2498       C  0.40098593  0.64038515  0.33220942    -0.07100
C2499       C  0.39429565  0.65933064  0.31273080     0.13800
C2500       C  0.41290327  0.67847928  0.30531979    -0.20600
C2501       C  0.43780606  0.67976208  0.31712799    -0.07100
C2502       C  0.44446284  0.66088215  0.33654232     0.13800
C2503       C  0.47128024  0.66021438  0.34926524    -0.23900
H2504       H  0.43111688  0.62769264  0.35894388     0.15100
H2505       H  0.40764693  0.69315695  0.29076226     0.15100
C2506       C  0.36718302  0.66086846  0.30081508    -0.23900
H2507       H  0.47365462  0.64282170  0.36226080     0.05300
H2508       H  0.47438972  0.67791018  0.36169709     0.08500
H2509       H  0.48664789  0.65922617  0.33382512     0.08500
H2510       H  0.35230571  0.66162702  0.31667427     0.08500
H2511       H  0.36332309  0.64390342  0.28767726     0.08500
H2512       H  0.36476583  0.67879432  0.28859666     0.05300
C2513       C  0.43024322  0.57484828  0.38859072    -0.20500
C2514       C  0.40327067  0.57008382  0.39120271    -0.07100
C2515       C  0.39440904  0.55390685  0.41198842     0.13800
C2516       C  0.41264605  0.54300831  0.42957721    -0.20600
C2517       C  0.43973217  0.54765449  0.42709390    -0.07100
C2518       C  0.44862271  0.56407781  0.40630896     0.13800
C2519       C  0.47719668  0.57110968  0.40303467    -0.23900
H2520       H  0.43707338  0.58671035  0.37228749     0.15100
H2521       H  0.40560356  0.53048999  0.44534295     0.15100
C2522       C  0.36570037  0.54804126  0.41584481    -0.23900
H2523       H  0.48022493  0.58536527  0.38674137     0.05300
H2524       H  0.48870112  0.55327293  0.39828426     0.08500
H2525       H  0.48481776  0.58024120  0.42145627     0.08500
H2526       H  0.35837861  0.53618370  0.39907024     0.08500
H2527       H  0.35440434  0.56655822  0.41722325     0.08500
H2528       H  0.36211300  0.53657484  0.43410781     0.05300
C2529       C  0.46064274  0.60340960  0.60416055    -0.20500
C2530       C  0.44135023  0.61941157  0.59255822    -0.07100
C2531       C  0.43588250  0.61669187  0.56540075     0.13800
C2532       C  0.44880078  0.59729247  0.55086608    -0.20600
C2533       C  0.46752266  0.58084277  0.56255969    -0.07100
C2534       C  0.47390108  0.58418969  0.58948736     0.13800
C2535       C  0.49368550  0.56690335  0.60309429    -0.23900
H2536       H  0.46493948  0.60554262  0.62498584     0.15100
H2537       H  0.44432497  0.59498882  0.53005395     0.15100
C2538       C  0.41746073  0.63484928  0.55126443    -0.23900
H2539       H  0.49537648  0.57159333  0.62444598     0.05300
H2540       H  0.51333019  0.56975263  0.59413823     0.08500
H2541       H  0.48771091  0.54598073  0.60117958     0.08500
H2542       H  0.42514060  0.65518717  0.55297336     0.08500
H2543       H  0.39750461  0.63337480  0.55970754     0.08500
H2544       H  0.41589328  0.63010340  0.52991854     0.05300
C2545       C  0.43083550  0.70892473  0.67398523    -0.20500
C2546       C  0.43791350  0.68266814  0.66876586    -0.07100
C2547       C  0.45767069  0.67120848  0.68507378     0.13800
C2548       C  0.46709679  0.68502657  0.70700002    -0.20600
C2549       C  0.45785392  0.71007516  0.71361541    -0.07100
C2550       C  0.44005148  0.72257824  0.69621443     0.13800
C2551       C  0.42988530  0.75002581  0.70088781    -0.23900
H2552       H  0.41743988  0.71921094  0.66132628     0.15100
H2553       H  0.48163067  0.67560655  0.71943409     0.15100
C2554       C  0.46920295  0.64417410  0.68121491    -0.23900
H2555       H  0.41595327  0.75635187  0.68526722     0.05300
H2556       H  0.44641451  0.76428558  0.70094347     0.08500
H2557       H  0.41920778  0.75085493  0.71992021     0.08500
H2558       H  0.46165297  0.63340797  0.66404332     0.08500
H2559       H  0.49078661  0.64591662  0.67872822     0.08500
H2560       H  0.46518772  0.63197024  0.69889314     0.05300
C2561       C  0.58155981  0.37346114  0.68516465    -0.20500
C2562       C  0.60055106  0.36688316  0.66616914    -0.07100
C2563       C  0.60182571  0.34052656  0.65731076     0.13800
C2564       C  0.58327063  0.32216889  0.66600481    -0.20600
C2565       C  0.56422080  0.32875580  0.68461730    -0.07100
C2566       C  0.56358591  0.35464407  0.69475260     0.13800
C2567       C  0.54355788  0.36268990  0.71495072    -0.23900
H2568       H  0.58069371  0.39348824  0.69243220     0.15100
H2569       H  0.58411660  0.30210723  0.65877185     0.15100
C2570       C  0.62396991  0.33074594  0.64070744    -0.23900
H2571       H  0.54529870  0.38385985  0.72005190     0.05300
H2572       H  0.54641043  0.35123642  0.73333732     0.08500
H2573       H  0.52348087  0.35909103  0.70712952     0.08500
H2574       H  0.64243756  0.33425780  0.65179415     0.08500
H2575       H  0.62406932  0.34061517  0.62131279     0.08500
H2576       H  0.62255353  0.30929574  0.63684104     0.05300
C2577       C  0.58491317  0.46087354  0.61490897    -0.20500
C2578       C  0.59723527  0.43722585  0.60716814    -0.07100
C2579       C  0.59149780  0.42747117  0.58129998     0.13800
C2580       C  0.57474663  0.44170239  0.56458973    -0.20600
C2581       C  0.56348675  0.46556464  0.57214230    -0.07100
C2582       C  0.56868586  0.47533384  0.59772438     0.13800
C2583       C  0.55679627  0.50067001  0.60730596    -0.23900
H2584       H  0.58788334  0.46832797  0.63471387     0.15100
H2585       H  0.57052979  0.43412802  0.54499404     0.15100
C2586       C  0.60245977  0.40243492  0.57002800    -0.23900
H2587       H  0.56195597  0.50476975  0.62822227     0.05300
H2588       H  0.53507798  0.49960784  0.60574684     0.08500
H2589       H  0.56420433  0.51734575  0.59534640     0.08500
H2590       H  0.59173484  0.38528834  0.57813202     0.08500
H2591       H  0.62370913  0.40115617  0.57369447     0.08500
H2592       H  0.59989903  0.40134703  0.54827927     0.05300
C2593       C  0.67389286  0.46499819  0.67840985    -0.20500
C2594       C  0.66999446  0.43755862  0.68002824    -0.07100
C2595       C  0.68798243  0.42272957  0.69583193     0.13800
C2596       C  0.70930374  0.43541842  0.70787292    -0.20600
C2597       C  0.71394970  0.46219750  0.70445715    -0.07100
C2598       C  0.69573242  0.47738059  0.69012703     0.13800
C2599       C  0.69913951  0.50667705  0.68723444    -0.23900
H2600       H  0.66092865  0.47704370  0.66682040     0.15100
H2601       H  0.72317363  0.42407213  0.71941296     0.15100
C2602       C  0.68603833  0.39326657  0.69970787    -0.23900
H2603       H  0.68239871  0.51571961  0.67655191     0.05300
H2604       H  0.71722303  0.51108142  0.67592272     0.08500
H2605       H  0.70048027  0.51594847  0.70702873     0.08500
H2606       H  0.70315656  0.38542788  0.71075340     0.08500
H2607       H  0.68550529  0.38265267  0.68063475     0.08500
H2608       H  0.66856792  0.38824060  0.71159448     0.05300
C2609       C  0.60627118  0.67278131  0.35372439    -0.20500
C2610       C  0.60143330  0.66704273  0.38014004    -0.07100
C2611       C  0.57869860  0.67689941  0.39233259     0.13800
C2612       C  0.56161113  0.69313300  0.37790770    -0.20600
C2613       C  0.56690294  0.70010514  0.35154347    -0.07100
C2614       C  0.58946281  0.68902223  0.33913711     0.13800
C2615       C  0.59677337  0.69426876  0.31077284    -0.23900
H2616       H  0.62416866  0.66557357  0.34483088     0.15100
H2617       H  0.54438394  0.70091205  0.38758930     0.15100
C2618       C  0.57282248  0.67063587  0.42073692    -0.23900
H2619       H  0.61463546  0.68337155  0.30476650     0.05300
H2620       H  0.60105975  0.71547735  0.30796190     0.08500
H2621       H  0.58063023  0.68782017  0.29746300     0.08500
H2622       H  0.58885566  0.67810044  0.43364028     0.08500
H2623       H  0.57107651  0.64903016  0.42317367     0.08500
H2624       H  0.55416556  0.67970606  0.42730651     0.05300
C2625       C  0.59716511  0.61206640  0.46181012    -0.20500
C2626       C  0.61339925  0.60231207  0.44175979    -0.07100
C2627       C  0.61257322  0.57524311  0.43552771     0.13800
C2628       C  0.59451771  0.55893452  0.44855216    -0.20600
C2629       C  0.57758816  0.56888904  0.46791778    -0.07100
C2630       C  0.57921856  0.59571777  0.47494009     0.13800
C2631       C  0.56118791  0.60748423  0.49522812    -0.23900
H2632       H  0.59799411  0.63280889  0.46666528     0.15100
H2633       H  0.59334897  0.53827753  0.44336982     0.15100
C2634       C  0.63111451  0.56325101  0.41581898    -0.23900
H2635       H  0.56446482  0.62896023  0.49749300     0.05300
H2636       H  0.56469056  0.59819049  0.51470026     0.08500
H2637       H  0.54043307  0.60433002  0.48922157     0.08500
H2638       H  0.65167146  0.56768811  0.42163577     0.08500
H2639       H  0.62727052  0.57102273  0.39580409     0.08500
H2640       H  0.62887714  0.54155552  0.41480950     0.05300
C2641       C  0.20694312  0.47892692  0.81739478    -0.20500
C2642       C  0.21240253  0.47040882  0.79177880    -0.07100
C2643       C  0.19467635  0.45290991  0.77932119     0.13800
C2644       C  0.17327323  0.44279137  0.79364201    -0.20600
C2645       C  0.16933050  0.44891352  0.82057429    -0.07100
C2646       C  0.18615612  0.46845615  0.83206820     0.13800
C2647       C  0.18445565  0.47834533  0.86014555    -0.23900
H2648       H  0.22000752  0.49304110  0.82677862     0.15100
H2649       H  0.16059197  0.42910781  0.78355188     0.15100
C2650       C  0.19797566  0.44495302  0.75084822    -0.23900
H2651       H  0.20349428  0.47502268  0.87030487     0.05300
H2652       H  0.16932802  0.46899364  0.87232282     0.08500
H2653       H  0.18051930  0.49978461  0.85997614     0.08500
H2654       H  0.21615291  0.43329351  0.74843588     0.08500
H2655       H  0.19891459  0.46273623  0.73822263     0.08500
H2656       H  0.18135976  0.43260983  0.74375061     0.05300
C2657       C  0.32403747  0.45032974  0.64983577    -0.20500
C2658       C  0.31123731  0.43941490  0.67192498    -0.07100
C2659       C  0.30921993  0.41163512  0.67373765     0.13800
C2660       C  0.32048194  0.39590525  0.65398634    -0.20600
C2661       C  0.33373053  0.40697492  0.63248277    -0.07100
C2662       C  0.33507280  0.43449500  0.63008946     0.13800
C2663       C  0.34717990  0.44721182  0.60622107    -0.23900
H2664       H  0.32559216  0.47147380  0.64794893     0.15100
H2665       H  0.31875487  0.37470832  0.65515897     0.15100
C2666       C  0.29470793  0.39820404  0.69583031    -0.23900
H2667       H  0.34567424  0.46895921  0.60696477     0.05300
H2668       H  0.33692575  0.44029079  0.58811853     0.08500
H2669       H  0.36827290  0.44209997  0.60505480     0.08500
H2670       H  0.27425422  0.40558678  0.69675873     0.08500
H2671       H  0.30488915  0.40181459  0.71488291     0.08500
H2672       H  0.29373800  0.37658362  0.69294277     0.05300
C2673       C  0.35792885  0.59699074  0.64920375    -0.20500
C2674       C  0.38432952  0.60128027  0.65531876    -0.07100
C2675       C  0.39668343  0.58456279  0.67384861     0.13800
C2676       C  0.38156150  0.56674466  0.68846259    -0.20600
C2677       C  0.35445058  0.56396157  0.68420086    -0.07100
C2678       C  0.34271470  0.57866569  0.66325542     0.13800
C2679       C  0.31413694  0.57610348  0.65565988    -0.23900
H2680       H  0.34883422  0.60889210  0.63409539     0.15100
H2681       H  0.39123357  0.55482911  0.70325188     0.15100
C2682       C  0.42592279  0.58437522  0.67808825    -0.23900
H2683       H  0.30886371  0.58914340  0.63892408     0.05300
H2684       H  0.30150316  0.58171081  0.67253331     0.08500
H2685       H  0.30979885  0.55564265  0.64933728     0.08500
H2686       H  0.43066994  0.59153826  0.69824922     0.08500
H2687       H  0.43634312  0.59646730  0.66336431     0.08500
H2688       H  0.43336957  0.56402348  0.67582899     0.05300
C2689       C  0.33191301  0.35262657  0.10528522    -0.20500
C2690       C  0.33978858  0.37837766  0.10023114    -0.07100
C2691       C  0.33187794  0.39064599  0.07662889     0.13800
C2692       C  0.31454610  0.37751170  0.05942912    -0.20600
C2693       C  0.30488489  0.35224045  0.06523594    -0.07100
C2694       C  0.31485155  0.33916408  0.08813175     0.13800
C2695       C  0.30755703  0.31131506  0.09546029    -0.23900
H2696       H  0.33804519  0.34351394  0.12360010     0.15100
H2697       H  0.30801891  0.38741523  0.04170272     0.15100
C2698       C  0.34131360  0.41785224  0.06990619    -0.23900
H2699       H  0.31794356  0.30462726  0.11353070     0.05300
H2700       H  0.31309474  0.29766176  0.07932000     0.08500
H2701       H  0.28621205  0.30989243  0.09954176     0.08500
H2702       H  0.36307440  0.41800629  0.06903330     0.08500
H2703       H  0.33467206  0.43198138  0.08508868     0.08500
H2704       H  0.33366805  0.42449714  0.05050708     0.05300
C2705       C  0.44579629  0.44707494  0.09219465    -0.20500
C2706       C  0.43483750  0.46570282  0.07495297    -0.07100
C2707       C  0.40786844  0.47187447  0.07720052     0.13800
C2708       C  0.39262150  0.45885430  0.09610435    -0.20600
C2709       C  0.40333007  0.43946602  0.11251633    -0.07100
C2710       C  0.43036277  0.43375143  0.11084134     0.13800
C2711       C  0.44328013  0.41447912  0.12924339    -0.23900
H2712       H  0.46650800  0.44253226  0.09073434     0.15100
H2713       H  0.37194374  0.46346430  0.09772594     0.15100
C2714       C  0.39502633  0.49252278  0.06027134    -0.23900
H2715       H  0.46481478  0.41357505  0.12607738     0.05300
H2716       H  0.43533510  0.39443726  0.12610583     0.08500
H2717       H  0.43990615  0.42059142  0.14994261     0.08500
H2718       H  0.39483835  0.48619078  0.03932434     0.08500
H2719       H  0.40579955  0.51143229  0.06227405     0.08500
H2720       H  0.37432538  0.49595364  0.06610584     0.05300
C2721       C  0.61081875  0.65738815  0.81999675    -0.20500
C2722       C  0.59968437  0.63717326  0.83512346    -0.07100
C2723       C  0.57230602  0.63678599  0.83908461     0.13800
C2724       C  0.55680005  0.65676865  0.82809627    -0.20600
C2725       C  0.56780935  0.67732071  0.81310415    -0.07100
C2726       C  0.59538787  0.67753233  0.80905859     0.13800
C2727       C  0.60881975  0.69835611  0.79278480    -0.23900
H2728       H  0.63182602  0.65730330  0.81665775     0.15100
H2729       H  0.53581245  0.65634086  0.83145891     0.15100
C2730       C  0.55917265  0.61482980  0.85402451    -0.23900
H2731       H  0.63011099  0.69438481  0.79049543     0.05300
H2732       H  0.60697745  0.71780428  0.80251590     0.08500
H2733       H  0.59996992  0.69900353  0.77275061     0.08500
H2734       H  0.56590233  0.61487117  0.87483686     0.08500
H2735       H  0.56393768  0.59566745  0.84473955     0.08500
H2736       H  0.53748489  0.61690613  0.85409525     0.05300
C2737       C  0.57751314  0.54695257  0.88578763    -0.20500
C2738       C  0.59457398  0.56710275  0.89454787    -0.07100
C2739       C  0.59394987  0.57426275  0.92169062     0.13800
C2740       C  0.57648967  0.56140162  0.93872935    -0.20600
C2741       C  0.55993901  0.54116499  0.92999585    -0.07100
C2742       C  0.56045168  0.53375558  0.90316425     0.13800
C2743       C  0.54258786  0.51250248  0.89265313    -0.23900
H2744       H  0.57748913  0.54144262  0.86513526     0.15100
H2745       H  0.57598514  0.56697295  0.95938488     0.15100
C2746       C  0.61219890  0.59431778  0.93379929    -0.23900
H2747       H  0.54487871  0.50981847  0.87103482     0.05300
H2748       H  0.52182240  0.51768545  0.89660190     0.08500
H2749       H  0.54722293  0.49352084  0.90230025     0.08500
H2750       H  0.60640715  0.61443778  0.92812747     0.08500
H2751       H  0.63261001  0.59017630  0.92804252     0.08500
H2752       H  0.61163390  0.59379507  0.95569435     0.05300
C2753       C  0.66968050  0.56939670  0.79588524    -0.20500
C2754       C  0.66449770  0.56143550  0.82207440    -0.07100
C2755       C  0.68059955  0.54122989  0.83293077     0.13800
C2756       C  0.70244898  0.53230144  0.81882712    -0.20600
C2757       C  0.70879489  0.54226386  0.79392433    -0.07100
C2758       C  0.69147438  0.56018249  0.78179316     0.13800
C2759       C  0.69568936  0.56979312  0.75397335    -0.23900
H2760       H  0.65791935  0.58410336  0.78637953     0.15100
H2761       H  0.71518024  0.51776632  0.82773571     0.15100
C2762       C  0.67564400  0.52890469  0.85955357    -0.23900
H2763       H  0.67917682  0.58216649  0.74697751     0.05300
H2764       H  0.69728392  0.55277920  0.74035788     0.08500
H2765       H  0.71376508  0.58195695  0.75292671     0.08500
H2766       H  0.65751687  0.51685017  0.85879989     0.08500
H2767       H  0.67406648  0.54394867  0.87515826     0.08500
H2768       H  0.69171840  0.51546765  0.86550932     0.05300
C2769       C  0.39395627  0.68086006  0.85569640    -0.20500
C2770       C  0.39998867  0.66759140  0.87910054    -0.07100
C2771       C  0.42571318  0.66898014  0.88944926     0.13800
C2772       C  0.44485668  0.68394113  0.87626930    -0.20600
C2773       C  0.43877991  0.69731136  0.85290347    -0.07100
C2774       C  0.41306917  0.69556711  0.84234428     0.13800
C2775       C  0.40544789  0.71000264  0.81753227    -0.23900
H2776       H  0.37401595  0.68013372  0.84817842     0.15100
H2777       H  0.46464127  0.68510642  0.88411829     0.15100
C2778       C  0.43274391  0.65527317  0.91472150    -0.23900
H2779       H  0.38427437  0.70747719  0.81284110     0.05300
H2780       H  0.41679329  0.70241754  0.80052402     0.08500
H2781       H  0.40942464  0.73133645  0.81999730     0.08500
H2782       H  0.42951372  0.63382147  0.91240100     0.08500
H2783       H  0.42033398  0.66287062  0.93095634     0.08500
H2784       H  0.45362166  0.65851760  0.92022527     0.05300
C2785       C  0.35100734  0.60561113  0.84183147    -0.20500
C2786       C  0.33550304  0.60568159  0.86467439    -0.07100
C2787       C  0.31311217  0.58903334  0.86554434     0.13800
C2788       C  0.30586331  0.57453534  0.84299661    -0.20600
C2789       C  0.32135531  0.57444721  0.82012603    -0.07100
C2790       C  0.34460444  0.58990303  0.81982100     0.13800
C2791       C  0.36255791  0.59052462  0.79624251    -0.23900
H2792       H  0.36825813  0.61811793  0.84110760     0.15100
H2793       H  0.28858416  0.56205414  0.84382324     0.15100
C2794       C  0.29726631  0.58458375  0.89021667    -0.23900
H2795       H  0.37878551  0.60494790  0.79886074     0.05300
H2796       H  0.35132426  0.59614089  0.77833316     0.08500
H2797       H  0.37165773  0.57097678  0.79330689     0.08500
H2798       H  0.27707917  0.59219952  0.88733304     0.08500
H2799       H  0.30601468  0.59380145  0.90797985     0.08500
H2800       H  0.29612308  0.56318266  0.89433204     0.05300
C2801       C  0.40515205  0.61241046  0.95980092    -0.20500
C2802       C  0.38816269  0.60244143  0.94031041    -0.07100
C2803       C  0.38883318  0.57537193  0.93420787     0.13800
C2804       C  0.40715330  0.55917492  0.94705187    -0.20600
C2805       C  0.42519481  0.56940945  0.96550384    -0.07100
C2806       C  0.42397039  0.59641358  0.97212726     0.13800
C2807       C  0.44201434  0.60844157  0.99250301    -0.23900
H2808       H  0.40416141  0.63306990  0.96487930     0.15100
H2809       H  0.40780463  0.53844259  0.94217582     0.15100
C2810       C  0.36975707  0.56329448  0.91485341    -0.23900
H2811       H  0.43724243  0.62938632  0.99626581     0.05300
H2812       H  0.46263243  0.60767911  0.98559867     0.08500
H2813       H  0.44017947  0.59766003  0.01143175     0.08500
H2814       H  0.37311032  0.57119696  0.89480491     0.08500
H2815       H  0.34934444  0.56761330  0.92103197     0.08500
H2816       H  0.37194744  0.54162131  0.91374320     0.05300
C2817       C  0.31968611  0.71495275  0.96685684    -0.20500
C2818       C  0.29485075  0.72174958  0.95724008    -0.07100
C2819       C  0.28281622  0.70526880  0.93817457     0.13800
C2820       C  0.29647251  0.68325025  0.92848871    -0.20600
C2821       C  0.32222214  0.67715893  0.93690489    -0.07100
C2822       C  0.33356570  0.69325371  0.95716493     0.13800
C2823       C  0.36059047  0.68861349  0.96879931    -0.23900
H2824       H  0.32875106  0.72726984  0.98181716     0.15100
H2825       H  0.28695968  0.67172369  0.91341362     0.15100
C2826       C  0.25549554  0.71053179  0.92797530    -0.23900
H2827       H  0.36653550  0.70457991  0.98256434     0.05300
H2828       H  0.37585808  0.68784969  0.95335694     0.08500
H2829       H  0.36078108  0.67035049  0.98057777     0.08500
H2830       H  0.25515960  0.72927856  0.91685330     0.08500
H2831       H  0.24153993  0.71153351  0.94471813     0.08500
H2832       H  0.24856116  0.69482524  0.91436782     0.05300
C2833       C  0.33782221  0.35658930  0.90098638    -0.20500
C2834       C  0.36202274  0.34358930  0.90165408    -0.07100
C2835       C  0.36537206  0.32242846  0.91955835     0.13800
C2836       C  0.34400704  0.31389487  0.93488551    -0.20600
C2837       C  0.31975273  0.32682148  0.93409057    -0.07100
C2838       C  0.31674331  0.34865169  0.91699768     0.13800
C2839       C  0.29111438  0.36323514  0.91484371    -0.23900
H2840       H  0.33524974  0.37293266  0.88756913     0.15100
H2841       H  0.34671106  0.29771717  0.94851294     0.15100
C2842       C  0.39143606  0.30928674  0.92426681    -0.23900
H2843       H  0.29172303  0.37841638  0.89914174     0.05300
H2844       H  0.28673360  0.37343298  0.93366409     0.08500
H2845       H  0.27499719  0.34927644  0.90998674     0.08500
H2846       H  0.40784686  0.31872552  0.91361268     0.08500
H2847       H  0.39017665  0.28833583  0.91826010     0.08500
H2848       H  0.39639975  0.31032447  0.94559704     0.05300
C2849       C  0.38597372  0.43160500  0.83160981    -0.20500
C2850       C  0.37334550  0.40748763  0.83627207    -0.07100
C2851       C  0.34901250  0.40229198  0.82403710     0.13800
C2852       C  0.33807425  0.42108149  0.80727297    -0.20600
C2853       C  0.35076781  0.44515696  0.80180263    -0.07100
C2854       C  0.37502628  0.45058524  0.81459874     0.13800
C2855       C  0.38969068  0.47598377  0.81041759    -0.23900
H2856       H  0.40512818  0.43506982  0.84030741     0.15100
H2857       H  0.31951844  0.41630689  0.79787003     0.15100
C2858       C  0.33436429  0.37669690  0.82743534    -0.23900
H2859       H  0.40784789  0.47701062  0.82257578     0.05300
H2860       H  0.37711241  0.49282892  0.81606059     0.08500
H2861       H  0.39555904  0.47776561  0.78943220     0.08500
H2862       H  0.34439748  0.36281496  0.84084041     0.08500
H2863       H  0.31460810  0.38065873  0.83567625     0.08500
H2864       H  0.33205929  0.36691123  0.80796415     0.05300
C2865       C  0.42808211  0.42492289  0.90090720    -0.20500
C2866       C  0.43509697  0.39832912  0.90150914    -0.07100
C2867       C  0.45423626  0.38987569  0.92003406     0.13800
C2868       C  0.46594508  0.40838547  0.93711513    -0.20600
C2869       C  0.45868011  0.43489902  0.93649982    -0.07100
C2870       C  0.43960352  0.44329824  0.91805843     0.13800
C2871       C  0.43181488  0.47178594  0.91583187    -0.23900
H2872       H  0.41347968  0.43144143  0.88683795     0.15100
H2873       H  0.48037070  0.40204158  0.95149835     0.15100
C2874       C  0.46145915  0.36133565  0.92305274    -0.23900
H2875       H  0.41791275  0.47505409  0.89924480     0.05300
H2876       H  0.44949721  0.48409590  0.91230111     0.08500
H2877       H  0.42199192  0.47834970  0.93417506     0.08500
H2878       H  0.47231205  0.35429562  0.90555719     0.08500
H2879       H  0.44347681  0.34932609  0.92588232     0.08500
H2880       H  0.47439981  0.35816191  0.94042190     0.05300
C2881       C  0.45534206  0.32279233  0.82878451    -0.20500
C2882       C  0.42808220  0.32729857  0.82867810    -0.07100
C2883       C  0.41272865  0.31446279  0.80880202     0.13800
C2884       C  0.42536920  0.30144241  0.78801607    -0.20600
C2885       C  0.45277926  0.29972589  0.78668801    -0.07100
C2886       C  0.46788452  0.30943208  0.80817274     0.13800
C2887       C  0.49723652  0.30568690  0.81000543    -0.23900
H2888       H  0.46742619  0.32977414  0.84478666     0.15100
H2889       H  0.41360792  0.29293517  0.77230375     0.15100
C2890       C  0.38299031  0.31395074  0.80888865    -0.23900
H2891       H  0.50528878  0.31258936  0.82920520     0.05300
H2892       H  0.50728340  0.31715785  0.79440395     0.08500
H2893       H  0.50206119  0.28451501  0.80807284     0.08500
H2894       H  0.37456728  0.33387366  0.80769214     0.08500
H2895       H  0.37566687  0.30387969  0.82675183     0.08500
H2896       H  0.37494650  0.30285248  0.79177444     0.05300
C2897       C  0.54933535  0.56780097  0.08691921    -0.20500
C2898       C  0.53315565  0.57693264  0.06646332    -0.07100
C2899       C  0.52913576  0.60436480  0.06391560     0.13800
C2900       C  0.54232415  0.62172036  0.08117463    -0.20600
C2901       C  0.55923451  0.61245005  0.10100072    -0.07100
C2902       C  0.56213530  0.58501815  0.10429930     0.13800
C2903       C  0.57745213  0.57339662  0.12683919    -0.23900
H2904       H  0.55225892  0.54684931  0.08927467     0.15100
H2905       H  0.53960849  0.64272441  0.07905618     0.15100
C2906       C  0.51049175  0.61552919  0.04373209    -0.23900
H2907       H  0.57534685  0.55168614  0.12770778     0.05300
H2908       H  0.56998501  0.58142473  0.14569878     0.08500
H2909       H  0.59863092  0.57760406  0.12463410     0.08500
H2910       H  0.49072962  0.60658661  0.04617124     0.08500
H2911       H  0.51781931  0.61163468  0.02353004     0.08500
H2912       H  0.50844465  0.63714448  0.04587879     0.05300
C2913       C  0.53832275  0.69144954  0.17015191    -0.20500
C2914       C  0.56575879  0.68863815  0.16853483    -0.07100
C2915       C  0.58154724  0.70310046  0.18689116     0.13800
C2916       C  0.56955620  0.71593039  0.20815573    -0.20600
C2917       C  0.54226862  0.71582269  0.21147158    -0.07100
C2918       C  0.52638714  0.70476524  0.19120592     0.13800
C2919       C  0.49681920  0.70677970  0.19126679    -0.23900
H2920       H  0.52566403  0.68262950  0.15559201     0.15100
H2921       H  0.58182012  0.72555455  0.22278935     0.15100
C2922       C  0.61115157  0.70515301  0.18492032    -0.23900
H2923       H  0.48797510  0.69904970  0.17274435     0.05300
H2924       H  0.49093241  0.72767947  0.19314599     0.08500
H2925       H  0.48847497  0.69508789  0.20769020     0.08500
H2926       H  0.61673517  0.71575252  0.16672699     0.08500
H2927       H  0.62063384  0.68565660  0.18530326     0.08500
H2928       H  0.61970901  0.71654699  0.20158281     0.05300
C2929       C  0.60765868  0.43285189  0.06924915    -0.20500
C2930       C  0.61155261  0.40808563  0.05779289    -0.07100
C2931       C  0.59611992  0.40080908  0.03553359     0.13800
C2932       C  0.57724446  0.41842229  0.02567396    -0.20600
C2933       C  0.57296669  0.44300453  0.03747556    -0.07100
C2934       C  0.58869606  0.45037952  0.05949257     0.13800
C2935       C  0.58609988  0.47684527  0.07265437    -0.23900
H2936       H  0.61947291  0.43846660  0.08619018     0.15100
H2937       H  0.56522547  0.41264707  0.00894215     0.15100
C2938       C  0.59840651  0.37421222  0.02254033    -0.23900
H2939       H  0.60127098  0.47988806  0.08816688     0.05300
H2940       H  0.56669183  0.47850232  0.08233997     0.08500
H2941       H  0.58842853  0.49269863  0.05782091     0.08500
H2942       H  0.59734333  0.35831785  0.03742509     0.08500
H2943       H  0.61711961  0.37282765  0.01160641     0.08500
H2944       H  0.58238815  0.37077389  0.00800812     0.05300
C2945       C  0.70989093  0.29629363  0.06723789    -0.20500
C2946       C  0.71086947  0.29368158  0.03974473    -0.07100
C2947       C  0.70081582  0.31443236  0.02403422     0.13800
C2948       C  0.68750453  0.33535223  0.03616524    -0.20600
C2949       C  0.68402006  0.33663899  0.06370082    -0.07100
C2950       C  0.69726411  0.31751553  0.07947191     0.13800
C2951       C  0.69834319  0.31866894  0.10932329    -0.23900
H2952       H  0.71864015  0.28121086  0.07944900     0.15100
H2953       H  0.67925033  0.35013302  0.02351934     0.15100
C2954       C  0.70400857  0.31508260  0.99443255    -0.23900
H2955       H  0.70868611  0.30145414  0.11779096     0.05300
H2956       H  0.67853254  0.31877837  0.11812805     0.08500
H2957       H  0.70949380  0.33621793  0.11588905     0.08500
H2958       H  0.69239206  0.29908261  0.98509134     0.08500
H2959       H  0.72507697  0.31310150  0.98929416     0.08500
H2960       H  0.69698580  0.33384376  0.98582568     0.05300
C2961       C  0.03182521  0.60616742  0.43369593    -0.20500
C2962       C  0.03688840  0.57923736  0.43016955    -0.07100
C2963       C  0.05532212  0.57154168  0.41070678     0.13800
C2964       C  0.06785939  0.59079372  0.39547910    -0.20600
C2965       C  0.06254779  0.61756887  0.39876077    -0.07100
C2966       C  0.04445954  0.62542923  0.41836134     0.13800
C2967       C  0.03878450  0.65383624  0.42446793    -0.23900
H2968       H  0.01809240  0.61231137  0.44876280     0.15100
H2969       H  0.08187093  0.58480882  0.38063316     0.15100
C2970       C  0.06272683  0.54320151  0.40621463    -0.23900
H2971       H  0.01779950  0.65801025  0.42034908     0.05300
H2972       H  0.05099823  0.66771976  0.41299861     0.08500
H2973       H  0.04283665  0.65772659  0.44565960     0.08500
H2974       H  0.04554047  0.53197109  0.39870959     0.08500
H2975       H  0.06991786  0.53440397  0.42490542     0.08500
H2976       H  0.07857278  0.54120291  0.39135760     0.05300
C2977       C  0.03206679  0.70960173  0.30378320    -0.20500
C2978       C  0.04668722  0.71342310  0.28064730    -0.07100
C2979       C  0.07344793  0.70623934  0.28050317     0.13800
C2980       C  0.08412159  0.69375470  0.30266584    -0.20600
C2981       C  0.06876828  0.68717970  0.32484447    -0.07100
C2982       C  0.04316846  0.69799342  0.32635732     0.13800
C2983       C  0.02828696  0.70096024  0.35179205    -0.23900
H2984       H  0.01212210  0.71689934  0.30468735     0.15100
H2985       H  0.10451149  0.68780291  0.30211410     0.15100
C2986       C  0.09065682  0.71028920  0.25667329    -0.23900
H2987       H  0.02075091  0.72134460  0.35346111     0.05300
H2988       H  0.04098610  0.69816350  0.36933268     0.08500
H2989       H  0.01131372  0.68722281  0.35210641     0.08500
H2990       H  0.09323804  0.73158831  0.25281873     0.08500
H2991       H  0.08168744  0.70058300  0.23917394     0.08500
H2992       H  0.11052168  0.70183507  0.25955569     0.05300
C2993       C  0.89294330  0.42519608  0.68233018    -0.20500
C2994       C  0.87846964  0.40821778  0.66590747    -0.07100
C2995       C  0.85104923  0.41081051  0.66443570     0.13800
C2996       C  0.83882768  0.43088579  0.67881100    -0.20600
C2997       C  0.85326094  0.44848135  0.69492755    -0.07100
C2998       C  0.88086305  0.44545704  0.69661597     0.13800
C2999       C  0.89794175  0.46345713  0.71299836    -0.23900
H3000       H  0.91398561  0.42254596  0.68393641     0.15100
H3001       H  0.81765418  0.43246936  0.67771550     0.15100
C3002       C  0.83450765  0.39164599  0.64883099    -0.23900
H3003       H  0.91910009  0.45877456  0.71084273     0.05300
H3004       H  0.89300080  0.46136736  0.73419371     0.08500
H3005       H  0.89513429  0.48411900  0.70663697     0.08500
H3006       H  0.81322071  0.39569964  0.65096126     0.08500
H3007       H  0.83817568  0.37133220  0.65586761     0.08500
H3008       H  0.83936164  0.39295213  0.62757930     0.05300
C3009       C  0.95373018  0.39479632  0.57841707    -0.20500
C3010       C  0.93686543  0.40438463  0.59811100    -0.07100
C3011       C  0.93273497  0.43186442  0.59990433     0.13800
C3012       C  0.94452607  0.44866834  0.58144221    -0.20600
C3013       C  0.96122606  0.43906950  0.56182634    -0.07100
C3014       C  0.96603752  0.41180539  0.56032882     0.13800
C3015       C  0.98340225  0.40056621  0.53918032    -0.23900
H3016       H  0.95706593  0.37382447  0.57701721     0.15100
H3017       H  0.94115132  0.46966017  0.58265605     0.15100
C3018       C  0.91754191  0.44404761  0.62214879    -0.23900
H3019       H  0.98445822  0.37880924  0.54036992     0.05300
H3020       H  0.00362436  0.40848557  0.54133124     0.08500
H3021       H  0.97557115  0.40585899  0.51943130     0.08500
H3022       H  0.92629986  0.43783029  0.64114731     0.08500
H3023       H  0.89660324  0.43836604  0.62112414     0.08500
H3024       H  0.91829889  0.46585037  0.62152746     0.05300
C3025       C  0.96274910  0.32640405  0.66778704    -0.20500
C3026       C  0.93523182  0.32893542  0.66705935    -0.07100
C3027       C  0.92028474  0.31395395  0.68558508     0.13800
C3028       C  0.93320553  0.30067881  0.70605482    -0.20600
C3029       C  0.96061591  0.30066990  0.70836526    -0.07100
C3030       C  0.97557979  0.31237296  0.68792737     0.13800
C3031       C  0.00507101  0.31004699  0.68677579    -0.23900
H3032       H  0.97471991  0.33579957  0.65310573     0.15100
H3033       H  0.92159385  0.29067475  0.72083388     0.15100
C3034       C  0.89061290  0.31166201  0.68460465    -0.23900
H3035       H  0.01313955  0.31831807  0.66822251     0.05300
H3036       H  0.01077924  0.28902695  0.68765217     0.08500
H3037       H  0.01426774  0.32104472  0.70332146     0.08500
H3038       H  0.88429498  0.30156659  0.66628665     0.08500
H3039       H  0.88096014  0.33101761  0.68606136     0.08500
H3040       H  0.88287071  0.29967868  0.70114844     0.05300
C3041       C  0.90339999  0.43147487  0.41470642    -0.20500
C3042       C  0.90320946  0.43930081  0.38819665    -0.07100
C3043       C  0.92169896  0.45836718  0.37978735     0.13800
C3044       C  0.93758372  0.47112483  0.39859710    -0.20600
C3045       C  0.93608822  0.46483975  0.42551533    -0.07100
C3046       C  0.91926831  0.44412654  0.43353458     0.13800
C3047       C  0.91820168  0.43478710  0.46175424    -0.23900
H3048       H  0.89049799  0.41580241  0.42099443     0.15100
H3049       H  0.95128647  0.48612509  0.39212709     0.15100
C3050       C  0.92618486  0.46486517  0.35114808    -0.23900
H3051       H  0.90529630  0.41729134  0.46397085     0.05300
H3052       H  0.91019808  0.45044346  0.47463476     0.08500
H3053       H  0.93816649  0.42929278  0.46858260     0.08500
H3054       H  0.92047319  0.48553575  0.34732652     0.08500
H3055       H  0.91527065  0.45174725  0.33749533     0.08500
H3056       H  0.94732096  0.46250108  0.34646695     0.05300
C3057       C  0.82471577  0.56468071  0.65394524    -0.20500
C3058       C  0.81063349  0.57598935  0.67499165    -0.07100
C3059       C  0.80814700  0.60376223  0.67578157     0.13800
C3060       C  0.81938207  0.61900838  0.65554092    -0.20600
C3061       C  0.83334710  0.60750594  0.63464944    -0.07100
C3062       C  0.83603792  0.57994942  0.63390590     0.13800
C3063       C  0.84978414  0.56628219  0.61147650    -0.23900
H3064       H  0.82707115  0.54355643  0.65308778     0.15100
H3065       H  0.81717913  0.64018001  0.65592026     0.15100
C3066       C  0.79341553  0.61765478  0.69741080    -0.23900
H3067       H  0.84835272  0.54457153  0.61313754     0.05300
H3068       H  0.87092126  0.57141894  0.61145567     0.08500
H3069       H  0.84074695  0.57204316  0.59240677     0.08500
H3070       H  0.80337049  0.61449833  0.71664368     0.08500
H3071       H  0.77292809  0.61019870  0.69827041     0.08500
H3072       H  0.79257514  0.63919887  0.69407788     0.05300
C3073       C  0.90080292  0.57224133  0.52504155    -0.20500
C3074       C  0.92748982  0.57470515  0.53183184    -0.07100
C3075       C  0.93469834  0.59251246  0.55218210     0.13800
C3076       C  0.91519779  0.60690316  0.56518969    -0.20600
C3077       C  0.88858467  0.60433461  0.55852000    -0.07100
C3078       C  0.88126274  0.58661815  0.53817274     0.13800
C3079       C  0.85310723  0.58133035  0.53053065    -0.23900
H3080       H  0.89501478  0.55846282  0.50972923     0.15100
H3081       H  0.92089061  0.62046451  0.58069755     0.15100
C3082       C  0.96271881  0.59581078  0.56122383    -0.23900
H3083       H  0.84902217  0.55993459  0.53195276     0.05300
H3084       H  0.84974019  0.58773772  0.50987390     0.08500
H3085       H  0.83879549  0.59129713  0.54345458     0.08500
H3086       H  0.97483090  0.60388882  0.54497514     0.08500
H3087       H  0.97055377  0.57652822  0.56759279     0.08500
H3088       H  0.96447004  0.60957442  0.57818124     0.05300
C3089       C  0.09583072  0.40436967  0.45800306    -0.20500
C3090       C  0.11189922  0.41417598  0.43777284    -0.07100
C3091       C  0.10925087  0.44078063  0.43020424     0.13800
C3092       C  0.08975598  0.45633432  0.44189828    -0.20600
C3093       C  0.07327250  0.44637090  0.46164780    -0.07100
C3094       C  0.07668371  0.42013332  0.47014616     0.13800
C3095       C  0.05943990  0.40825617  0.49109972    -0.23900
H3096       H  0.09778740  0.38398968  0.46383645     0.15100
H3097       H  0.08749797  0.47659499  0.43573935     0.15100
C3098       C  0.12770268  0.45340372  0.41089882    -0.23900
H3099       H  0.06398539  0.38719227  0.49439206     0.05300
H3100       H  0.03851723  0.40969305  0.48509357     0.08500
H3101       H  0.06247279  0.41871680  0.51009720     0.08500
H3102       H  0.12603016  0.44395372  0.39129904     0.08500
H3103       H  0.14800500  0.45174935  0.41861486     0.08500
H3104       H  0.12347380  0.47462109  0.40820075     0.05300
C3105       C  0.08667063  0.53649747  0.56984017    -0.20500
C3106       C  0.06104271  0.54618904  0.56829470    -0.07100
C3107       C  0.05369304  0.56730257  0.58492072     0.13800
C3108       C  0.07233131  0.57845804  0.60220015    -0.20600
C3109       C  0.09817938  0.56920230  0.60323808    -0.07100
C3110       C  0.10549769  0.54809448  0.58646637     0.13800
C3111       C  0.13320482  0.53820610  0.58413791    -0.23900
H3112       H  0.09248424  0.52057599  0.55689146     0.15100
H3113       H  0.06663906  0.59439682  0.61516386     0.15100
C3114       C  0.02603633  0.57757250  0.58522621    -0.23900
H3115       H  0.13914032  0.53812574  0.56307503     0.05300
H3116       H  0.13441007  0.51787088  0.59190619     0.08500
H3117       H  0.14752151  0.55082781  0.59452881     0.08500
H3118       H  0.01217790  0.56122130  0.58939869     0.08500
H3119       H  0.02119240  0.58658541  0.56593272     0.08500
H3120       H  0.02331995  0.59286681  0.60062278     0.05300
C3121       C  0.20894107  0.54105061  0.67711131    -0.20500
C3122       C  0.21352643  0.54917266  0.70318951    -0.07100
C3123       C  0.19426279  0.56471129  0.71578138     0.13800
C3124       C  0.17254541  0.57356589  0.70116165    -0.20600
C3125       C  0.16941152  0.56783101  0.67404369    -0.07100
C3126       C  0.18740549  0.54981338  0.66246550     0.13800
C3127       C  0.18501715  0.53980372  0.63444987    -0.23900
H3128       H  0.22277802  0.52803002  0.66760436     0.15100
H3129       H  0.15882540  0.58595132  0.71130666     0.15100
C3130       C  0.19634013  0.57257853  0.74443562    -0.23900
H3131       H  0.20148427  0.52665492  0.62901635     0.05300
H3132       H  0.18537550  0.55611488  0.62009099     0.08500
H3133       H  0.16693429  0.52790728  0.63220564     0.08500
H3134       H  0.21401893  0.58501342  0.74760302     0.08500
H3135       H  0.19732852  0.55476325  0.75700142     0.08500
H3136       H  0.17912782  0.58416377  0.75101138     0.05300
C3137       C  0.96358487  0.68599463  0.79103074    -0.20500
C3138       C  0.95584291  0.71178078  0.78513656    -0.07100
C3139       C  0.93936148  0.72501633  0.80325543     0.13800
C3140       C  0.92979567  0.71151028  0.82539897    -0.20600
C3141       C  0.93570893  0.68488186  0.83016373    -0.07100
C3142       C  0.95416830  0.67246536  0.81313391     0.13800
C3143       C  0.96411769  0.64475108  0.81734062    -0.23900
H3144       H  0.97704234  0.67597369  0.77797271     0.15100
H3145       H  0.91673492  0.72205328  0.83815415     0.15100
C3146       C  0.93108502  0.75321169  0.79948574    -0.23900
H3147       H  0.97714321  0.63828794  0.80107374     0.05300
H3148       H  0.94788539  0.63028185  0.81821492     0.08500
H3149       H  0.97606443  0.64373737  0.83557532     0.08500
H3150       H  0.91964296  0.75516668  0.78092399     0.08500
H3151       H  0.94865261  0.76617709  0.79899985     0.08500
H3152       H  0.91840278  0.76027270  0.81577833     0.05300
C3153       C  0.03079363  0.82640679  0.79029189    -0.20500
C3154       C  0.03825511  0.80037077  0.78579422    -0.07100
C3155       C  0.05439906  0.78775181  0.80449992     0.13800
C3156       C  0.06376093  0.80196621  0.82642186    -0.20600
C3157       C  0.05847175  0.82901269  0.82983023    -0.07100
C3158       C  0.04071708  0.84102084  0.81158452     0.13800
C3159       C  0.03229135  0.86949255  0.81246117    -0.23900
H3160       H  0.01786119  0.83596348  0.77627213     0.15100
H3161       H  0.07594338  0.79154998  0.84014138     0.15100
C3162       C  0.06164085  0.75917288  0.80173441    -0.23900
H3163       H  0.01062262  0.87043818  0.81448452     0.05300
H3164       H  0.03792979  0.87926370  0.79373299     0.08500
H3165       H  0.04090399  0.88129607  0.82853371     0.08500
H3166       H  0.07392001  0.75628285  0.78394489     0.08500
H3167       H  0.04357434  0.74698710  0.80016256     0.08500
H3168       H  0.07310497  0.75204751  0.81894526     0.05300
C3169       C  0.07958467  0.63208248  0.68054944    -0.20500
C3170       C  0.09976460  0.63954430  0.66330188    -0.07100
C3171       C  0.10439834  0.66652944  0.65882962     0.13800
C3172       C  0.08822689  0.68533506  0.67101812    -0.20600
C3173       C  0.06748319  0.67792274  0.68774623    -0.07100
C3174       C  0.06339468  0.65079697  0.69279903     0.13800
C3175       C  0.04270875  0.64133379  0.71179096    -0.23900
H3176       H  0.07664554  0.61137758  0.68461665     0.15100
H3177       H  0.09158200  0.70599829  0.66709276     0.15100
C3178       C  0.12695107  0.67559117  0.64197896    -0.23900
H3179       H  0.04385594  0.61978634  0.71499773     0.05300
H3180       H  0.02283372  0.64555950  0.70394103     0.08500
H3181       H  0.04541411  0.65114026  0.73120455     0.08500
H3182       H  0.12432489  0.66835581  0.62149043     0.08500
H3183       H  0.14566737  0.66797702  0.65015745     0.08500
H3184       H  0.12836128  0.69735574  0.64127583     0.05300
C3185       C  0.94087230  0.69405638  0.61857149    -0.20500
C3186       C  0.94028154  0.69527510  0.64622098    -0.07100
C3187       C  0.92053443  0.68089453  0.65995993     0.13800
C3188       C  0.90184281  0.66643645  0.64561069    -0.20600
C3189       C  0.90201202  0.66616182  0.61811083    -0.07100
C3190       C  0.92205998  0.67961824  0.60434399     0.13800
C3191       C  0.92414401  0.67922521  0.57468456    -0.23900
H3192       H  0.95606732  0.70451573  0.60791252     0.15100
H3193       H  0.88613586  0.65631546  0.65586823     0.15100
C3194       C  0.91786331  0.68158703  0.68961869    -0.23900
H3195       H  0.94355406  0.67124019  0.56893633     0.05300
H3196       H  0.92232426  0.69952857  0.56695494     0.08500
H3197       H  0.90890525  0.66686542  0.56510013     0.08500
H3198       H  0.91618298  0.70222892  0.69651780     0.08500
H3199       H  0.93501811  0.67202189  0.69904368     0.08500
H3200       H  0.90010545  0.67086209  0.69641672     0.05300
C3201       C  0.70757620  0.21667580  0.57321177    -0.20500
C3202       C  0.70714043  0.21983568  0.54590678    -0.07100
C3203       C  0.69378661  0.20130211  0.53007076     0.13800
C3204       C  0.68033027  0.18043970  0.54211021    -0.20600
C3205       C  0.67921480  0.17773876  0.56982444    -0.07100
C3206       C  0.69358102  0.19635095  0.58554282     0.13800
C3207       C  0.69397617  0.19606982  0.61542112    -0.23900
H3208       H  0.71809284  0.23102144  0.58508970     0.15100
H3209       H  0.66969621  0.16729237  0.52934735     0.15100
C3210       C  0.69372183  0.20336985  0.50036465    -0.23900
H3211       H  0.70452345  0.21339404  0.62366191     0.05300
H3212       H  0.70453654  0.17864398  0.62285417     0.08500
H3213       H  0.67388799  0.19664529  0.62361945     0.08500
H3214       H  0.71421480  0.20373827  0.49298962     0.08500
H3215       H  0.68348324  0.22151246  0.49407998     0.08500
H3216       H  0.68345401  0.18648703  0.49093984     0.05300
C3217       C  0.65633842  0.33254456  0.44362418    -0.20500
C3218       C  0.67615759  0.31680915  0.43253270    -0.07100
C3219       C  0.67617458  0.31292531  0.40481568     0.13800
C3220       C  0.65676395  0.32502133  0.38925824    -0.20600
C3221       C  0.63714291  0.34081013  0.40042525    -0.07100
C3222       C  0.63682603  0.34438036  0.42806591     0.13800
C3223       C  0.61527096  0.35938034  0.44158094    -0.23900
H3224       H  0.65603066  0.33569205  0.46476849     0.15100
H3225       H  0.65661343  0.32181197  0.36810770     0.15100
C3226       C  0.69587744  0.29544037  0.39139479    -0.23900
H3227       H  0.61731398  0.35883757  0.46339194     0.05300
H3228       H  0.59602861  0.35051284  0.43645037     0.08500
H3229       H  0.61570651  0.38028407  0.43558899     0.08500
H3230       H  0.69528871  0.27551824  0.40027424     0.08500
H3231       H  0.71587870  0.30393133  0.39334686     0.08500
H3232       H  0.69170164  0.29330906  0.36997644     0.05300
C3233       C  0.84372001  0.34388275  0.55530768    -0.20500
C3234       C  0.82555214  0.32530782  0.56480010    -0.07100
C3235       C  0.82769767  0.31675731  0.59122239     0.13800
C3236       C  0.84750957  0.32735473  0.60749597    -0.20600
C3237       C  0.86570164  0.34593190  0.59803283    -0.07100
C3238       C  0.86402635  0.35393263  0.57136555     0.13800
C3239       C  0.88426641  0.37181402  0.55916523    -0.23900
H3240       H  0.84224023  0.35027542  0.53498472     0.15100
H3241       H  0.84887080  0.32103438  0.62785058     0.15100
C3242       C  0.80876965  0.29704285  0.60263660    -0.23900
H3243       H  0.88122691  0.37386266  0.53756345     0.05300
H3244       H  0.90419061  0.36364713  0.56235056     0.08500
H3245       H  0.88311641  0.39176956  0.56775548     0.08500
H3246       H  0.81061115  0.27799697  0.59213101     0.08500
H3247       H  0.78836819  0.30438621  0.60068772     0.08500
H3248       H  0.81269393  0.29341489  0.62388229     0.05300
C3249       C  0.69122000  0.38268220  0.55954429    -0.20500
C3250       C  0.69677419  0.35582286  0.56187767    -0.07100
C3251       C  0.68861891  0.34211620  0.58475731     0.13800
C3252       C  0.67472663  0.35553676  0.60418792    -0.20600
C3253       C  0.66721293  0.38162973  0.60099373    -0.07100
C3254       C  0.67662926  0.39584982  0.57891061     0.13800
C3255       C  0.67220226  0.42491060  0.57538785    -0.23900
H3256       H  0.69804617  0.39340474  0.54240007     0.15100
H3257       H  0.67069820  0.34575142  0.62255130     0.15100
C3258       C  0.69533884  0.31362926  0.58957352    -0.23900
H3259       H  0.66183623  0.42843543  0.55642847     0.05300
H3260       H  0.69142429  0.43525353  0.57495281     0.08500
H3261       H  0.66031761  0.43368903  0.59134055     0.08500
H3262       H  0.71686728  0.31076832  0.58805239     0.08500
H3263       H  0.68502365  0.30085200  0.57509623     0.08500
H3264       H  0.68916830  0.30701592  0.60949635     0.05300
C3265       C  0.81194292  0.37942023  0.44177994    -0.20500
C3266       C  0.79930072  0.35614617  0.43369732    -0.07100
C3267       C  0.80171585  0.34780231  0.40703901     0.13800
C3268       C  0.81726473  0.36243365  0.38982278    -0.20600
C3269       C  0.83075541  0.38487722  0.39817593    -0.07100
C3270       C  0.82708971  0.39426787  0.42413752     0.13800
C3271       C  0.83736656  0.42048654  0.43341611    -0.23900
H3272       H  0.80963651  0.38638941  0.46185845     0.15100
H3273       H  0.81808580  0.35688484  0.36925509     0.15100
C3274       C  0.78727000  0.32425461  0.39587956    -0.23900
H3275       H  0.82076214  0.43267214  0.44043725     0.05300
H3276       H  0.84727657  0.43167519  0.41759006     0.08500
H3277       H  0.85132909  0.41758911  0.45000882     0.08500
H3278       H  0.76590085  0.32611055  0.39964731     0.08500
H3279       H  0.79488418  0.30588457  0.40475840     0.08500
H3280       H  0.78991092  0.32240653  0.37421189     0.05300
C3281       C  0.15640714  0.90060680  0.65967474    -0.20500
C3282       C  0.16604082  0.90397700  0.63402525    -0.07100
C3283       C  0.18451906  0.92422774  0.62913258     0.13800
C3284       C  0.19394127  0.93945920  0.65025464    -0.20600
C3285       C  0.18506440  0.93550607  0.67615005    -0.07100
C3286       C  0.16570219  0.91600123  0.68083531     0.13800
C3287       C  0.15405267  0.91184971  0.70781941    -0.23900
H3288       H  0.14167874  0.88564942  0.66323242     0.15100
H3289       H  0.20813759  0.95489120  0.64634340     0.15100
C3290       C  0.19391120  0.93120583  0.60183117    -0.23900
H3291       H  0.13825964  0.89674110  0.70751023     0.05300
H3292       H  0.14542951  0.93048456  0.71513268     0.08500
H3293       H  0.16941934  0.90504910  0.72174848     0.08500
H3294       H  0.18376029  0.92009231  0.58599044     0.08500
H3295       H  0.21532952  0.92758502  0.60039651     0.08500
H3296       H  0.19014640  0.95234413  0.59805892     0.05300
C3297       C  0.09157073  0.80438984  0.65551592    -0.20500
C3298       C  0.06562442  0.80393763  0.64585197    -0.07100
C3299       C  0.05894796  0.82050288  0.62443789     0.13800
C3300       C  0.07827718  0.83702937  0.61355785    -0.20600
C3301       C  0.10412220  0.83689418  0.62309226    -0.07100
C3302       C  0.11085156  0.82044722  0.64435812     0.13800
C3303       C  0.13838130  0.81977050  0.65541345    -0.23900
H3304       H  0.09700447  0.79180450  0.67185938     0.15100
H3305       H  0.07341603  0.84951619  0.59698404     0.15100
C3306       C  0.03161727  0.82125246  0.61320259    -0.23900
H3307       H  0.13989513  0.80650528  0.67271700     0.05300
H3308       H  0.14438779  0.83971980  0.66186185     0.08500
H3309       H  0.15232147  0.81260868  0.64030820     0.08500
H3310       H  0.01768605  0.82651701  0.62902711     0.08500
H3311       H  0.02633426  0.80178518  0.60479055     0.08500
H3312       H  0.02974972  0.83604119  0.59722424     0.05300
C3313       C  0.11029912  0.93157972  0.56956075    -0.20500
C3314       C  0.10767867  0.90466516  0.56434892    -0.07100
C3315       C  0.08754055  0.89578896  0.54725540     0.13800
C3316       C  0.07114654  0.91414283  0.53504993    -0.20600
C3317       C  0.07396335  0.94123465  0.53963719    -0.07100
C3318       C  0.09370252  0.95005554  0.55746220     0.13800
C3319       C  0.09700034  0.97867078  0.56451449    -0.23900
H3320       H  0.12564444  0.93816220  0.58293250     0.15100
H3321       H  0.05585496  0.90709632  0.52185514     0.15100
C3322       C  0.08223515  0.86711205  0.54190273    -0.23900
H3323       H  0.11241239  0.98165751  0.57979529     0.05300
H3324       H  0.07829878  0.98650839  0.57242381     0.08500
H3325       H  0.10293829  0.99004119  0.54684991     0.08500
H3326       H  0.06161138  0.86236973  0.54714695     0.08500
H3327       H  0.09494500  0.85389494  0.55350929     0.08500
H3328       H  0.08520921  0.86289258  0.52063321     0.05300
C3329       C  0.16114979  0.07985510  0.67568893    -0.20500
C3330       C  0.14581159  0.06517676  0.69361390    -0.07100
C3331       C  0.11899609  0.07171264  0.69660471     0.13800
C3332       C  0.10874050  0.09288147  0.68228063    -0.20600
C3333       C  0.12414893  0.10739819  0.66451018    -0.07100
C3334       C  0.15072964  0.10083612  0.66122437     0.13800
C3335       C  0.16865448  0.11677810  0.64385800    -0.23900
H3336       H  0.18177932  0.07539510  0.67334479     0.15100
H3337       H  0.08831525  0.09814934  0.68486741     0.15100
C3338       C  0.10081281  0.05659304  0.71446403    -0.23900
H3339       H  0.18920632  0.10964278  0.64473188     0.05300
H3340       H  0.16865498  0.13750669  0.65051788     0.08500
H3341       H  0.16219779  0.11562942  0.62301584     0.08500
H3342       H  0.10714583  0.05884546  0.73531143     0.08500
H3343       H  0.10069993  0.03550879  0.70880333     0.08500
H3344       H  0.08029962  0.06378128  0.71309242     0.05300
C3345       C  0.04884653  0.12256815  0.57821365    -0.20500
C3346       C  0.06586312  0.11317042  0.59796729    -0.07100
C3347       C  0.06913844  0.08564410  0.60059368     0.13800
C3348       C  0.05662667  0.06858089  0.58275137    -0.20600
C3349       C  0.03999578  0.07796357  0.56291589    -0.07100
C3350       C  0.03576937  0.10527428  0.56074222     0.13800
C3351       C  0.01817169  0.11618309  0.53956475    -0.23900
H3352       H  0.04599431  0.14357051  0.57628161     0.15100
H3353       H  0.05952245  0.04755014  0.58452177     0.15100
C3354       C  0.08431177  0.07374511  0.62302467    -0.23900
H3355       H  0.01743842  0.13798002  0.54027013     0.05300
H3356       H  0.99790740  0.10856311  0.54216821     0.08500
H3357       H  0.02553209  0.11023885  0.51985635     0.08500
H3358       H  0.07596333  0.08079514  0.64187566     0.08500
H3359       H  0.10536583  0.07884108  0.62157249     0.08500
H3360       H  0.08296886  0.05195762  0.62304790     0.05300
C3361       C  0.04273913  0.18819776  0.67080496    -0.20500
C3362       C  0.07021013  0.18826854  0.66721298    -0.07100
C3363       C  0.08570482  0.20438599  0.68456441     0.13800
C3364       C  0.07361343  0.21784354  0.70534510    -0.20600
C3365       C  0.04678299  0.21554910  0.70995446    -0.07100
C3366       C  0.03095087  0.20132992  0.69203526     0.13800
C3367       C  0.00153329  0.20004375  0.69514485    -0.23900
H3368       H  0.03007213  0.17687541  0.65809215     0.15100
H3369       H  0.08543067  0.22935627  0.71898331     0.15100
C3370       C  0.11518738  0.20716699  0.68256378    -0.23900
H3371       H  0.99199767  0.18926779  0.67859835     0.05300
H3372       H  0.99338387  0.22024026  0.69559699     0.08500
H3373       H  0.99636280  0.18968609  0.71365468     0.08500
H3374       H  0.12062917  0.21718083  0.66402939     0.08500
H3375       H  0.12490418  0.18784667  0.68408264     0.08500
H3376       H  0.12345273  0.21944985  0.69873631     0.05300
C3377       C  0.10935396  0.05019972  0.40477124    -0.20500
C3378       C  0.09777630  0.06792211  0.38711438    -0.07100
C3379       C  0.07046441  0.07214974  0.38822617     0.13800
C3380       C  0.05545130  0.05884855  0.40728689    -0.20600
C3381       C  0.06714421  0.04195525  0.42586334    -0.07100
C3382       C  0.09458307  0.03758142  0.42446125     0.13800
C3383       C  0.10851141  0.01946647  0.44332252    -0.23900
H3384       H  0.13030156  0.04679875  0.40359441     0.15100
H3385       H  0.03449364  0.06229048  0.40815494     0.15100
C3386       C  0.05703813  0.09029779  0.36904615    -0.23900
H3387       H  0.12957314  0.01723045  0.43823901     0.05300
H3388       H  0.09927138  0.99968261  0.44271310     0.08500
H3389       H  0.10763456  0.02750420  0.46365626     0.08500
H3390       H  0.06105099  0.08385299  0.34852000     0.08500
H3391       H  0.06429309  0.11068586  0.37178517     0.08500
H3392       H  0.03543884  0.09043963  0.37190552     0.05300
C3393       C  0.16872954  0.04959245  0.30916839    -0.20500
C3394       C  0.16896311  0.07661411  0.31521705    -0.07100
C3395       C  0.19005934  0.09215258  0.30494062     0.13800
C3396       C  0.21139293  0.07978250  0.29284755    -0.20600
C3397       C  0.21244527  0.05248575  0.28985708    -0.07100
C3398       C  0.19011571  0.03733795  0.29680248     0.13800
C3399       C  0.18835139  0.00827747  0.29102166    -0.23900
H3400       H  0.15220427  0.03751029  0.31458514     0.15100
H3401       H  0.22791447  0.09169627  0.28655125     0.15100
C3402       C  0.19210258  0.12174436  0.30727438    -0.23900
H3403       H  0.16862533  0.00017932  0.29563780     0.05300
H3404       H  0.20273964  0.99735769  0.30321124     0.08500
H3405       H  0.19212249  0.00464318  0.26976076     0.08500
H3406       H  0.20985650  0.12701241  0.31894706     0.08500
H3407       H  0.17522452  0.13132631  0.31671964     0.08500
H3408       H  0.19402219  0.13037643  0.28727023     0.05300
C3409       C  0.91006239  0.83055022  0.68841698    -0.20500
C3410       C  0.93545921  0.82922662  0.67788924    -0.07100
C3411       C  0.94342394  0.84889759  0.65980868     0.13800
C3412       C  0.92617881  0.86945998  0.65331892    -0.20600
C3413       C  0.90086558  0.87104879  0.66399728    -0.07100
C3414       C  0.89247338  0.85071109  0.68127774     0.13800
C3415       C  0.86455657  0.84886478  0.69091295    -0.23900
H3416       H  0.90364939  0.81520765  0.70174777     0.15100
H3417       H  0.93257960  0.88437416  0.63967867     0.15100
C3418       C  0.97024581  0.84865480  0.64746998    -0.23900
H3419       H  0.86073338  0.82991286  0.70105326     0.05300
H3420       H  0.85076900  0.85017625  0.67396032     0.08500
H3421       H  0.86036403  0.86461414  0.70534091     0.08500
H3422       H  0.97202956  0.83119490  0.63449807     0.08500
H3423       H  0.98557289  0.84817557  0.66308618     0.08500
H3424       H  0.97378234  0.86630953  0.63510824     0.05300
C3425       C  0.93139697  0.93933113  0.60932557    -0.20500
C3426       C  0.90478682  0.94623231  0.60885559    -0.07100
C3427       C  0.89638237  0.96577115  0.59075054     0.13800
C3428       C  0.91470176  0.97779574  0.57394306    -0.20600
C3429       C  0.94099221  0.96992371  0.57354669    -0.07100
C3430       C  0.94955150  0.95069269  0.59178665     0.13800
C3431       C  0.97793827  0.94257527  0.59335723    -0.23900
H3432       H  0.93807627  0.92507988  0.62354425     0.15100
H3433       H  0.90802016  0.99233503  0.55985621     0.15100
C3434       C  0.86806366  0.97333861  0.58721280    -0.23900
H3435       H  0.98142683  0.92850875  0.60971311     0.05300
H3436       H  0.99049929  0.96013163  0.59683970     0.08500
H3437       H  0.98393575  0.93280376  0.57477360     0.08500
H3438       H  0.86518858  0.99395219  0.59372857     0.08500
H3439       H  0.85454917  0.96034127  0.59807284     0.08500
H3440       H  0.86255541  0.97168696  0.56605717     0.05300
C3441       C  0.82423263  0.93432202  0.70251769    -0.20500
C3442       C  0.83105758  0.94401731  0.67727138    -0.07100
C3443       C  0.81493126  0.96434681  0.66652023     0.13800
C3444       C  0.79331720  0.97365427  0.68079958    -0.20600
C3445       C  0.78610313  0.96313142  0.70522482    -0.07100
C3446       C  0.80207923  0.94340488  0.71641885     0.13800
C3447       C  0.79604243  0.93178305  0.74305789    -0.23900
H3448       H  0.83509511  0.91843017  0.71122715     0.15100
H3449       H  0.78118612  0.98886861  0.67219894     0.15100
C3450       C  0.81894529  0.97595288  0.63940331    -0.23900
H3451       H  0.81126862  0.91756524  0.74941875     0.05300
H3452       H  0.77703867  0.92108129  0.74231826     0.08500
H3453       H  0.79514535  0.94763286  0.75810617     0.08500
H3454       H  0.81806882  0.96044518  0.62412451     0.08500
H3455       H  0.83764763  0.98697260  0.63849584     0.08500
H3456       H  0.80340608  0.99029039  0.63419053     0.05300
C3457       C  0.92016836  0.10357017  0.43111926    -0.20500
C3458       C  0.89348397  0.10004850  0.43701675    -0.07100
C3459       C  0.88609852  0.07989888  0.45483992     0.13800
C3460       C  0.90565865  0.06459805  0.46693119    -0.20600
C3461       C  0.93226159  0.06806135  0.46079672    -0.07100
C3462       C  0.93960612  0.08780295  0.44266445     0.13800
C3463       C  0.96802695  0.09295874  0.43619051    -0.23900
H3464       H  0.92592604  0.11915848  0.41776268     0.15100
H3465       H  0.90000741  0.04916427  0.48052296     0.15100
C3466       C  0.85790199  0.07307564  0.46068923    -0.23900
H3467       H  0.97033143  0.10989767  0.42259815     0.05300
H3468       H  0.97670279  0.07550795  0.42646456     0.08500
H3469       H  0.97910785  0.09743722  0.45457015     0.08500
H3470       H  0.85451318  0.05187046  0.45668946     0.08500
H3471       H  0.84373009  0.08399994  0.44832354     0.08500
H3472       H  0.85370386  0.07707762  0.48179027     0.05300
C3473       C  0.82077065  0.20951011  0.47147296    -0.20500
C3474       C  0.79600007  0.21611811  0.46149183    -0.07100
C3475       C  0.78457949  0.19997453  0.44183642     0.13800
C3476       C  0.79887686  0.17871619  0.43171072    -0.20600
C3477       C  0.82461563  0.17283279  0.44038514    -0.07100
C3478       C  0.83525124  0.18837170  0.46138580     0.13800
C3479       C  0.86213347  0.18376548  0.47326128    -0.23900
H3480       H  0.82933266  0.22159011  0.48691528     0.15100
H3481       H  0.78985248  0.16794371  0.41585475     0.15100
C3482       C  0.75728112  0.20484144  0.43127907    -0.23900
H3483       H  0.86759055  0.19933707  0.48766928     0.05300
H3484       H  0.87761103  0.18374617  0.45799614     0.08500
H3485       H  0.86235785  0.16507745  0.48435802     0.08500
H3486       H  0.75672049  0.22367615  0.42032169     0.08500
H3487       H  0.74305443  0.20534714  0.44781147     0.08500
H3488       H  0.75081360  0.18917839  0.41739374     0.05300
C3489       C  0.95653380  0.88828723  0.41807636    -0.20500
C3490       C  0.93998283  0.89801782  0.39818356    -0.07100
C3491       C  0.93732871  0.92555797  0.39549066     0.13800
C3492       C  0.95037535  0.94240654  0.41322452    -0.20600
C3493       C  0.96622623  0.93277303  0.43375495    -0.07100
C3494       C  0.96964179  0.90517502  0.43588734     0.13800
C3495       C  0.98752512  0.89323685  0.45630530    -0.23900
H3496       H  0.95898529  0.86722241  0.41986291     0.15100
H3497       H  0.94785174  0.96343325  0.41116061     0.15100
C3498       C  0.92187625  0.93763004  0.37330334    -0.23900
H3499       H  0.98915734  0.87161583  0.45383536     0.05300
H3500       H  0.97975251  0.89691915  0.47637787     0.08500
H3501       H  0.00753124  0.90176896  0.45451274     0.08500
H3502       H  0.90077015  0.93292031  0.37525350     0.08500
H3503       H  0.92947978  0.93029368  0.35427184     0.08500
H3504       H  0.92364800  0.95938352  0.37312369     0.05300
C3505       C  0.96243732  0.82395150  0.32464068    -0.20500
C3506       C  0.93527088  0.82219151  0.32988718    -0.07100
C3507       C  0.91980246  0.80528024  0.31333363     0.13800
C3508       C  0.93144230  0.79282804  0.29159847    -0.20600
C3509       C  0.95780546  0.79686138  0.28534081    -0.07100
C3510       C  0.97375415  0.81177282  0.30258562     0.13800
C3511       C  0.00281754  0.81494843  0.29784259    -0.23900
H3512       H  0.97508204  0.83615366  0.33652200     0.15100
H3513       H  0.91953671  0.78071377  0.27858971     0.15100
C3514       C  0.89072522  0.80065719  0.31730731    -0.23900
H3515       H  0.01262152  0.82596228  0.31407052     0.05300
H3516       H  0.00627639  0.82599475  0.27933260     0.08500
H3517       H  0.01215463  0.79532122  0.29646192     0.08500
H3518       H  0.87975645  0.81938453  0.31771686     0.08500
H3519       H  0.88731518  0.78950360  0.33570261     0.08500
H3520       H  0.88203750  0.78866139  0.30113948     0.05300
C3521       C  0.70372613  0.69991617  0.47032893    -0.20500
C3522       C  0.70850532  0.72146509  0.45386957    -0.07100
C3523       C  0.70293963  0.71959632  0.42680352     0.13800
C3524       C  0.69042113  0.69703179  0.41718397    -0.20600
C3525       C  0.68261371  0.67639119  0.43406984    -0.07100
C3526       C  0.69220588  0.67674761  0.46044949     0.13800
C3527       C  0.69413961  0.65266864  0.47752654    -0.23900
H3528       H  0.71006394  0.70078964  0.49076313     0.15100
H3529       H  0.68521658  0.69618036  0.39644643     0.15100
C3530       C  0.70923788  0.74184273  0.40827319    -0.23900
H3531       H  0.71384403  0.65189438  0.48694843     0.05300
H3532       H  0.69250524  0.63431320  0.46583036     0.08500
H3533       H  0.67916459  0.65337784  0.49336408     0.08500
H3534       H  0.73070360  0.74565686  0.40834297     0.08500
H3535       H  0.69882318  0.75987776  0.41465510     0.08500
H3536       H  0.70315221  0.73729985  0.38769988     0.05300
C3537       C  0.79539491  0.69750052  0.53015333    -0.20500
C3538       C  0.79281131  0.72086044  0.54461643    -0.07100
C3539       C  0.80129559  0.72171795  0.57112732     0.13800
C3540       C  0.81382928  0.69980971  0.58175376    -0.20600
C3541       C  0.81931137  0.67735644  0.56641628    -0.07100
C3542       C  0.80718905  0.67520608  0.54124883     0.13800
C3543       C  0.80328639  0.64951519  0.52694640    -0.23900
H3544       H  0.78707397  0.69628226  0.51046090     0.15100
H3545       H  0.82063525  0.70075624  0.60201465     0.15100
C3546       C  0.79864939  0.74606707  0.58797411    -0.23900
H3547       H  0.78246872  0.64765513  0.52059314     0.05300
H3548       H  0.80696679  0.63233315  0.53978125     0.08500
H3549       H  0.81590151  0.64882625  0.50915479     0.08500
H3550       H  0.77763015  0.75039105  0.59149396     0.08500
H3551       H  0.80814038  0.76304083  0.57804439     0.08500
H3552       H  0.80814924  0.74367724  0.60757305     0.05300
C3553       C  0.64813582  0.82290663  0.55615832    -0.20500
C3554       C  0.67292354  0.81692700  0.56700121    -0.07100
C3555       C  0.67668568  0.82078432  0.59459233     0.13800
C3556       C  0.65638754  0.83167585  0.60975224    -0.20600
C3557       C  0.63231697  0.83878040  0.59852092    -0.07100
C3558       C  0.62765815  0.83294894  0.57165884     0.13800
C3559       C  0.60104968  0.83556661  0.55898448    -0.23900
H3560       H  0.64438204  0.81931747  0.53540399     0.15100
H3561       H  0.65911023  0.83415619  0.63080908     0.15100
C3562       C  0.70169626  0.81337408  0.60865717    -0.23900
H3563       H  0.59483935  0.81623122  0.55086973     0.05300
H3564       H  0.60209882  0.84989521  0.54253640     0.08500
H3565       H  0.58573551  0.84177766  0.57308764     0.08500
H3566       H  0.71823390  0.82538887  0.60114044     0.08500
H3567       H  0.70571404  0.79214453  0.60573809     0.08500
H3568       H  0.70050312  0.81693277  0.63024463     0.05300
C3569       C  0.84554113  0.84186940  0.44368398    -0.20500
C3570       C  0.82696291  0.82312970  0.43518136    -0.07100
C3571       C  0.82914748  0.81273864  0.40939622     0.13800
C3572       C  0.84905651  0.82209777  0.39259161    -0.20600
C3573       C  0.86743870  0.84116716  0.40091833    -0.07100
C3574       C  0.86603742  0.85056774  0.42719265     0.13800
C3575       C  0.88681099  0.86846140  0.43864385    -0.23900
H3576       H  0.84423263  0.84947981  0.46362393     0.15100
H3577       H  0.85026030  0.81446384  0.37265433     0.15100
C3578       C  0.81013694  0.79234125  0.39918136    -0.23900
H3579       H  0.88412971  0.87133657  0.46018815     0.05300
H3580       H  0.88594672  0.88812833  0.42946417     0.08500
H3581       H  0.90651384  0.85976157  0.43561012     0.08500
H3582       H  0.78977297  0.79990796  0.40039992     0.08500
H3583       H  0.81183600  0.77410090  0.41101167     0.08500
H3584       H  0.81410606  0.78714768  0.37828565     0.05300
C3585       C  0.82151774  0.87533380  0.55678753    -0.20500
C3586       C  0.80361753  0.85666311  0.56645283    -0.07100
C3587       C  0.80356329  0.85099024  0.59389997     0.13800
C3588       C  0.82092663  0.86443450  0.61062692    -0.20600
C3589       C  0.83821516  0.88362185  0.60108664    -0.07100
C3590       C  0.83888908  0.88879414  0.57369317     0.13800
C3591       C  0.85694685  0.90878506  0.56157396    -0.23900
H3592       H  0.82202711  0.87948342  0.53582143     0.15100
H3593       H  0.82031415  0.86072701  0.63168298     0.15100
C3594       C  0.78447497  0.83189958  0.60625082    -0.23900
H3595       H  0.86916570  0.89920623  0.54625961     0.05300
H3596       H  0.87036779  0.91777691  0.57609580     0.08500
H3597       H  0.84519884  0.92458341  0.55223637     0.08500
H3598       H  0.78864434  0.81156771  0.59960701     0.08500
H3599       H  0.76411112  0.83741180  0.60088683     0.08500
H3600       H  0.78586964  0.83193796  0.62812583     0.05300
C3601       C  0.68404787  0.90238646  0.41707097    -0.20500
C3602       C  0.66410746  0.88892846  0.40323401    -0.07100
C3603       C  0.65917993  0.86233088  0.40921201     0.13800
C3604       C  0.67438891  0.84996129  0.42862160    -0.20600
C3605       C  0.69513646  0.86300334  0.44187208    -0.07100
C3606       C  0.69991924  0.88979351  0.43588149     0.13800
C3607       C  0.72188374  0.90530969  0.44852457    -0.23900
H3608       H  0.68785838  0.92281931  0.41235717     0.15100
H3609       H  0.67041556  0.82946273  0.43276442     0.15100
C3610       C  0.63924744  0.84618672  0.39416716    -0.23900
H3611       H  0.72237380  0.92596304  0.44149716     0.05300
H3612       H  0.74106525  0.89636339  0.44349560     0.08500
H3613       H  0.71928532  0.90578030  0.47024854     0.08500
H3614       H  0.64339732  0.84719360  0.37274593     0.08500
H3615       H  0.61915453  0.85327369  0.39818906     0.08500
H3616       H  0.63977432  0.82516484  0.39995995     0.05300
C3617       C  0.70967020  0.97324460  0.31871100    -0.20500
C3618       C  0.71388143  0.96484312  0.29273439    -0.07100
C3619       C  0.69525308  0.94767789  0.28098626     0.13800
C3620       C  0.67414947  0.93829969  0.29614447    -0.20600
C3621       C  0.67136918  0.94464464  0.32314144    -0.07100
C3622       C  0.68937079  0.96325363  0.33415886     0.13800
C3623       C  0.68944678  0.97252186  0.36250647    -0.23900
H3624       H  0.72315938  0.98711710  0.32781228     0.15100
H3625       H  0.66060672  0.92515900  0.28652212     0.15100
C3626       C  0.69751707  0.93842216  0.25278454    -0.23900
H3627       H  0.68607212  0.99405233  0.36313058     0.05300
H3628       H  0.70884352  0.96832634  0.37160516     0.08500
H3629       H  0.67478872  0.96306827  0.37511384     0.08500
H3630       H  0.71604070  0.92734053  0.25013553     0.08500
H3631       H  0.69701676  0.95549761  0.23922571     0.08500
H3632       H  0.68113231  0.92511249  0.24703766     0.05300
C3633       C  0.71423990  0.07694812  0.20086678    -0.20500
C3634       C  0.71448438  0.04984842  0.20530938    -0.07100
C3635       C  0.69242785  0.03470306  0.19738139     0.13800
C3636       C  0.67222200  0.04656278  0.18275880    -0.20600
C3637       C  0.67303612  0.07335306  0.17592368    -0.07100
C3638       C  0.69385065  0.08907766  0.18678883     0.13800
C3639       C  0.69539504  0.11871085  0.18394714    -0.23900
H3640       H  0.73061741  0.08873273  0.20788279     0.15100
H3641       H  0.65588223  0.03442161  0.17676729     0.15100
C3642       C  0.68952115  0.00615135  0.20486563    -0.23900
H3643       H  0.71283100  0.12700039  0.19426645     0.05300
H3644       H  0.67811403  0.12819338  0.19297740     0.08500
H3645       H  0.69719683  0.12479790  0.16312313     0.08500
H3646       H  0.69176128  0.00398163  0.22655245     0.08500
H3647       H  0.70437015  0.99406330  0.19456799     0.08500
H3648       H  0.66993987  0.99817806  0.19931503     0.05300
C3649       C  0.80919655  0.09762127  0.32605231    -0.20500
C3650       C  0.81676913  0.07116114  0.32596251    -0.07100
C3651       C  0.83519700  0.06254924  0.34518804     0.13800
C3652       C  0.84497123  0.08050328  0.36402339    -0.20600
C3653       C  0.83676491  0.10676167  0.36447586    -0.07100
C3654       C  0.81890961  0.11551317  0.34482917     0.13800
C3655       C  0.80998252  0.14362749  0.34231131    -0.23900
H3656       H  0.79547318  0.10452959  0.31123831     0.15100
H3657       H  0.85862768  0.07380290  0.37898957     0.15100
C3658       C  0.84517382  0.03469237  0.34582957    -0.23900
H3659       H  0.81440470  0.15085643  0.32214747     0.05300
H3660       H  0.81975385  0.15725316  0.35624752     0.08500
H3661       H  0.78846725  0.14465772  0.34552161     0.08500
H3662       H  0.85396214  0.02952628  0.32649927     0.08500
H3663       H  0.82886956  0.02093289  0.35038801     0.08500
H3664       H  0.86049130  0.03197800  0.36122304     0.05300
C3665       C  0.80411001  0.94083229  0.15185262    -0.20500
C3666       C  0.81734975  0.93934185  0.17611184    -0.07100
C3667       C  0.83880542  0.92189952  0.17871600     0.13800
C3668       C  0.84657379  0.90680376  0.15694876    -0.20600
C3669       C  0.83311645  0.90789990  0.13282080    -0.07100
C3670       C  0.81186364  0.92558410  0.13007380     0.13800
C3671       C  0.79843372  0.92994032  0.10390004    -0.23900
H3672       H  0.78813786  0.95467253  0.14967700     0.15100
H3673       H  0.86329254  0.89393515  0.15888730     0.15100
C3674       C  0.85316931  0.91837878  0.20455895    -0.23900
H3675       H  0.78434473  0.94650435  0.10483055     0.05300
H3676       H  0.78714393  0.91231977  0.09782492     0.08500
H3677       H  0.81326874  0.93473985  0.08865707     0.08500
H3678       H  0.83898019  0.91331722  0.22035059     0.08500
H3679       H  0.86394355  0.93659662  0.20993885     0.08500
H3680       H  0.86782287  0.90231676  0.20346485     0.05300
C3681       C  0.87837165  0.93690656  0.29800059    -0.20500
C3682       C  0.85265408  0.94324528  0.30546468    -0.07100
C3683       C  0.84119137  0.92935761  0.32703355     0.13800
C3684       C  0.85552401  0.90951435  0.33971705    -0.20600
C3685       C  0.88090866  0.90300631  0.33182423    -0.07100
C3686       C  0.89281807  0.91747584  0.31108137     0.13800
C3687       C  0.92100571  0.91404951  0.30264836    -0.23900
H3688       H  0.88762161  0.94746347  0.28194973     0.15100
H3689       H  0.84659970  0.89852433  0.35566812     0.15100
C3690       C  0.81386489  0.93475494  0.33705687    -0.23900
H3691       H  0.93107987  0.93344448  0.30285121     0.05300
H3692       H  0.92159720  0.90601794  0.28228390     0.08500
H3693       H  0.93254197  0.90119595  0.31582566     0.08500
H3694       H  0.79919361  0.93060999  0.32133509     0.08500
H3695       H  0.81240014  0.95548154  0.34373579     0.08500
H3696       H  0.80871462  0.92216099  0.35416223     0.05300
C3697       C  0.88031822  0.07141368  0.20158224    -0.20500
C3698       C  0.85418237  0.06605351  0.19508286    -0.07100
C3699       C  0.84288181  0.07806203  0.17256435     0.13800
C3700       C  0.85759845  0.09648945  0.15827745    -0.20600
C3701       C  0.88297412  0.10368786  0.16626220    -0.07100
C3702       C  0.89493720  0.09005674  0.18763512     0.13800
C3703       C  0.92289543  0.09422060  0.19674575    -0.23900
H3704       H  0.88915093  0.06174813  0.21845712     0.15100
H3705       H  0.84867047  0.10632911  0.14160279     0.15100
C3706       C  0.81542006  0.07155988  0.16335914    -0.23900
H3707       H  0.93353260  0.07523578  0.19597679     0.05300
H3708       H  0.92297164  0.10143126  0.21743319     0.08500
H3709       H  0.93415810  0.10829916  0.18472769     0.08500
H3710       H  0.80082846  0.07827425  0.17805367     0.08500
H3711       H  0.81344131  0.05003290  0.16032969     0.08500
H3712       H  0.81065331  0.08138059  0.14439487     0.05300
C3713       C  0.03143050  0.32846495  0.20924920    -0.20500
C3714       C  0.03931781  0.30252583  0.21422890    -0.07100
C3715       C  0.05532792  0.28978222  0.19537662     0.13800
C3716       C  0.06418931  0.30383484  0.17333255    -0.20600
C3717       C  0.05838035  0.33065136  0.16956176    -0.07100
C3718       C  0.04036555  0.34262520  0.18735613     0.13800
C3719       C  0.03028407  0.37042246  0.18414591    -0.23900
H3720       H  0.01826277  0.33810837  0.22288222     0.15100
H3721       H  0.07660053  0.29345840  0.15982640     0.15100
C3722       C  0.06398736  0.26160556  0.19829943    -0.23900
H3723       H  0.01759554  0.37639215  0.20086838     0.05300
H3724       H  0.01794061  0.37192709  0.16622305     0.08500
H3725       H  0.04643977  0.38496587  0.18334333     0.08500
H3726       H  0.04662052  0.24846595  0.19887568     0.08500
H3727       H  0.07583263  0.25934825  0.21656393     0.08500
H3728       H  0.07636941  0.25502495  0.18157345     0.05300
C3729       C  0.92861300  0.21397667  0.21205349    -0.20500
C3730       C  0.95591514  0.21372185  0.21537690    -0.07100
C3731       C  0.97153122  0.20212732  0.19540411     0.13800
C3732       C  0.95933918  0.19001546  0.17373705    -0.20600
C3733       C  0.93186133  0.18821306  0.17138398    -0.07100
C3734       C  0.91631391  0.20156586  0.19058442     0.13800
C3735       C  0.88663118  0.20260448  0.18952591    -0.23900
H3736       H  0.91656885  0.22340875  0.22684364     0.15100
H3737       H  0.97191351  0.18075555  0.15959346     0.15100
C3738       C  0.00114883  0.20188259  0.19651821    -0.23900
H3739       H  0.87830506  0.21254408  0.20711223     0.05300
H3740       H  0.87785431  0.18269205  0.18893926     0.08500
H3741       H  0.88009668  0.21413941  0.17224883     0.08500
H3742       H  0.00794794  0.18993778  0.21349653     0.08500
H3743       H  0.00862252  0.22229658  0.19818781     0.08500
H3744       H  0.00994574  0.19315387  0.17852327     0.05300
C3745       C  0.08080897  0.14060410  0.31386726    -0.20500
C3746       C  0.09887287  0.14460353  0.33453618    -0.07100
C3747       C  0.10039541  0.16974965  0.34649502     0.13800
C3748       C  0.08331458  0.18970704  0.33818403    -0.20600
C3749       C  0.06528045  0.18571203  0.31759920    -0.07100
C3750       C  0.06410130  0.16080496  0.30515858     0.13800
C3751       C  0.04471033  0.15508503  0.28335344    -0.23900
H3752       H  0.07969649  0.12143953  0.30454506     0.15100
H3753       H  0.08437461  0.20886325  0.34754253     0.15100
C3754       C  0.12098101  0.17645548  0.36678330    -0.23900
H3755       H  0.04567516  0.13428583  0.27677024     0.05300
H3756       H  0.04898914  0.16764498  0.26601374     0.08500
H3757       H  0.02445578  0.15891303  0.29035133     0.08500
H3758       H  0.14062083  0.17261072  0.35838313     0.08500
H3759       H  0.11803747  0.16490879  0.38499793     0.08500
H3760       H  0.12037168  0.19751880  0.37250254     0.05300
C3761       C  0.90538690  0.32499378  0.32432479    -0.20500
C3762       C  0.92827836  0.33301039  0.31108798    -0.07100
C3763       C  0.93307578  0.36035763  0.30782910     0.13800
C3764       C  0.91508630  0.37854175  0.31806797    -0.20600
C3765       C  0.89270348  0.37033187  0.33175829    -0.07100
C3766       C  0.88769334  0.34327940  0.33475573     0.13800
C3767       C  0.86351769  0.33361324  0.34854691    -0.23900
H3768       H  0.90148521  0.30422822  0.32704186     0.15100
H3769       H  0.91861803  0.39942886  0.31564912     0.15100
C3770       C  0.95675331  0.37080024  0.29340584    -0.23900
H3771       H  0.86244621  0.31182038  0.34900652     0.05300
H3772       H  0.84594067  0.34088471  0.33790487     0.08500
H3773       H  0.86362480  0.34079018  0.36921155     0.08500
H3774       H  0.95754241  0.36223355  0.27326788     0.08500
H3775       H  0.97493894  0.36600334  0.30446140     0.08500
H3776       H  0.95615235  0.39251412  0.29134234     0.05300
C3777       C  0.92109256  0.18327506  0.39676418    -0.20500
C3778       C  0.90261038  0.16903724  0.38179961    -0.07100
C3779       C  0.90340789  0.17041930  0.35411204     0.13800
C3780       C  0.92198778  0.18674222  0.34204700    -0.20600
C3781       C  0.93968751  0.20231257  0.35685050    -0.07100
C3782       C  0.93973511  0.19982047  0.38470640     0.13800
C3783       C  0.95849563  0.21507726  0.40197998    -0.23900
H3784       H  0.92029443  0.18207947  0.41809881     0.15100
H3785       H  0.92204224  0.18789603  0.32070736     0.15100
C3786       C  0.88364085  0.15608859  0.33719557    -0.23900
H3787       H  0.95523027  0.21102365  0.42324261     0.05300
H3788       H  0.95581553  0.23647446  0.39881288     0.08500
H3789       H  0.97899771  0.20947049  0.39733709     0.08500
H3790       H  0.86364063  0.16274561  0.34233897     0.08500
H3791       H  0.88522069  0.13460561  0.34034406     0.08500
H3792       H  0.88666076  0.15993797  0.31586284     0.05300
C3793       C  0.06134380  0.31444898  0.38128178    -0.20500
C3794       C  0.05521309  0.32082552  0.35504356    -0.07100
C3795       C  0.06739919  0.34346163  0.34371497     0.13800
C3796       C  0.08678425  0.35710685  0.35806437    -0.20600
C3797       C  0.09467482  0.34886253  0.38313443    -0.07100
C3798       C  0.08017067  0.32864120  0.39570093     0.13800
C3799       C  0.08313916  0.32213887  0.42457454    -0.23900
H3800       H  0.05128014  0.29828779  0.39086006     0.15100
H3801       H  0.09654456  0.37375302  0.34913596     0.15100
C3802       C  0.06093854  0.35340970  0.31641100    -0.23900
H3803       H  0.06359040  0.32272036  0.43417235     0.05300
H3804       H  0.09568559  0.33640643  0.43536019     0.08500
H3805       H  0.09136349  0.30209541  0.42678088     0.08500
H3806       H  0.03977563  0.35837347  0.31511255     0.08500
H3807       H  0.06604595  0.33838597  0.30140535     0.08500
H3808       H  0.07215139  0.37149504  0.31145417     0.05300
C3809       C  0.78534754  0.58018297  0.20518964    -0.20500
C3810       C  0.78312692  0.55300439  0.20785880    -0.07100
C3811       C  0.80366600  0.53679367  0.19919942     0.13800
C3812       C  0.82502411  0.54798672  0.18582560    -0.20600
C3813       C  0.82645400  0.57522643  0.18062501    -0.07100
C3814       C  0.80669385  0.59168194  0.19198686     0.13800
C3815       C  0.80721110  0.62140257  0.19034866    -0.23900
H3816       H  0.76981038  0.59245626  0.21291226     0.15100
H3817       H  0.83996529  0.53480364  0.17902175     0.15100
C3818       C  0.80314822  0.50760548  0.20431022    -0.23900
H3819       H  0.78970572  0.63026041  0.19979307     0.05300
H3820       H  0.80727182  0.62839227  0.16971551     0.08500
H3821       H  0.82445846  0.62939619  0.20102293     0.08500
H3822       H  0.78601815  0.49848545  0.19423002     0.08500
H3823       H  0.80174561  0.50395221  0.22585915     0.08500
H3824       H  0.82113917  0.49779757  0.19697699     0.05300
C3825       C  0.80377920  0.45614941  0.28244346    -0.20500
C3826       C  0.78362547  0.46772970  0.29710491    -0.07100
C3827       C  0.78710473  0.47172658  0.32446648     0.13800
C3828       C  0.80949682  0.46171154  0.33676814    -0.20600
C3829       C  0.82805939  0.44677087  0.32275774    -0.07100
C3830       C  0.82676387  0.44716054  0.29478802     0.13800
C3831       C  0.85008389  0.44203605  0.27740662    -0.23900
H3832       H  0.80221511  0.45549252  0.26110775     0.15100
H3833       H  0.81151235  0.46379329  0.35796800     0.15100
C3834       C  0.76663142  0.48513795  0.34114948    -0.23900
H3835       H  0.85268213  0.45872271  0.26355125     0.05300
H3836       H  0.84687367  0.42385662  0.26567983     0.08500
H3837       H  0.86863749  0.44088000  0.28883087     0.08500
H3838       H  0.74742378  0.47500739  0.33873702     0.08500
H3839       H  0.76474453  0.50603319  0.33529835     0.08500
H3840       H  0.77184926  0.48480639  0.36243914     0.05300
C3841       C  0.68216131  0.42835125  0.12555887    -0.20500
C3842       C  0.66657790  0.40659112  0.13211235    -0.07100
C3843       C  0.66189238  0.40100348  0.15894366     0.13800
C3844       C  0.67264768  0.41746857  0.17858252    -0.20600
C3845       C  0.68794340  0.43963080  0.17215472    -0.07100
C3846       C  0.69273937  0.44505561  0.14508094     0.13800
C3847       C  0.70955819  0.46788865  0.13640418    -0.23900
H3848       H  0.68616422  0.43219698  0.10492754     0.15100
H3849       H  0.66873296  0.41316833  0.19912829     0.15100
C3850       C  0.64618382  0.37724629  0.16692935    -0.23900
H3851       H  0.71280300  0.46776836  0.11474698     0.05300
H3852       H  0.72905957  0.46690870  0.14618699     0.08500
H3853       H  0.69984078  0.48672178  0.14132820     0.08500
H3854       H  0.65570026  0.35926136  0.15917682     0.08500
H3855       H  0.62595807  0.37872203  0.15892536     0.08500
H3856       H  0.64480603  0.37539286  0.18870449     0.05300
C3857       C  0.65159170  0.60640471  0.34268581    -0.20500
C3858       C  0.66575162  0.60534007  0.36643436    -0.07100
C3859       C  0.68723010  0.58781447  0.36851973     0.13800
C3860       C  0.69448929  0.57275686  0.34651401    -0.20600
C3861       C  0.68011615  0.57358962  0.32288730    -0.07100
C3862       C  0.65838734  0.59074786  0.32092231     0.13800
C3863       C  0.64274110  0.59331250  0.29574400    -0.23900
H3864       H  0.63515896  0.61972074  0.34107264     0.15100
H3865       H  0.71080875  0.55925254  0.34827116     0.15100
C3866       C  0.70209553  0.58318116  0.39386086    -0.23900
H3867       H  0.62775308  0.60902939  0.29719574     0.05300
H3868       H  0.63222749  0.57468332  0.29134395     0.08500
H3869       H  0.65602693  0.59828830  0.27915349     0.08500
H3870       H  0.70172826  0.56188281  0.39858068     0.08500
H3871       H  0.69362268  0.59345069  0.41106495     0.08500
H3872       H  0.72281096  0.58955425  0.39146291     0.05300
C3873       C  0.65696428  0.57948967  0.17495833    -0.20500
C3874       C  0.64329653  0.56552667  0.19470571    -0.07100
C3875       C  0.61702654  0.57272628  0.20028676     0.13800
C3876       C  0.60544598  0.59318589  0.18592084    -0.20600
C3877       C  0.61926432  0.60700244  0.16637945    -0.07100
C3878       C  0.64551497  0.60032322  0.16111921     0.13800
C3879       C  0.66224995  0.61612077  0.14240611    -0.23900
H3880       H  0.67718913  0.57467120  0.17067962     0.15100
H3881       H  0.58532713  0.59860711  0.19007064     0.15100
C3882       C  0.60094854  0.55952685  0.22142213    -0.23900
H3883       H  0.68305861  0.60973117  0.14285843     0.05300
H3884       H  0.66177443  0.63719381  0.14805891     0.08500
H3885       H  0.65527520  0.61373185  0.12185397     0.08500
H3886       H  0.61030892  0.56260955  0.24100180     0.08500
H3887       H  0.59909141  0.53820627  0.21713042     0.08500
H3888       H  0.58079175  0.56766866  0.22256321     0.05300
C3889       C  0.61903430  0.44333100  0.30610663    -0.20500
C3890       C  0.64653758  0.44432001  0.30709932    -0.07100
C3891       C  0.65981789  0.42881414  0.32624458     0.13800
C3892       C  0.64551360  0.41079408  0.34157687    -0.20600
C3893       C  0.61838127  0.40793472  0.33845937    -0.07100
C3894       C  0.60477938  0.42544367  0.32158702     0.13800
C3895       C  0.57524974  0.42554649  0.31981731    -0.23900
H3896       H  0.60864434  0.45586663  0.29236731     0.15100
H3897       H  0.65574201  0.39797495  0.35518640     0.15100
C3898       C  0.68896485  0.43126368  0.33106077    -0.23900
H3899       H  0.56797985  0.44254705  0.30823935     0.05300
H3900       H  0.56664870  0.42683420  0.33986168     0.08500
H3901       H  0.56816418  0.40757616  0.30974368     0.08500
H3902       H  0.69420480  0.45211842  0.33495875     0.08500
H3903       H  0.70004725  0.42387829  0.31380622     0.08500
H3904       H  0.69531835  0.41958078  0.34841415     0.05300
C3905       C  0.31875517  0.29909715  0.53149811    -0.20500
C3906       C  0.29348441  0.29319770  0.54075179    -0.07100
C3907       C  0.28148121  0.31094412  0.55852001     0.13800
C3908       C  0.29568588  0.33293515  0.56752739    -0.20600
C3909       C  0.32185490  0.33792212  0.55977014    -0.07100
C3910       C  0.33304118  0.32092172  0.54048212     0.13800
C3911       C  0.36033680  0.32472195  0.52935032    -0.23900
H3912       H  0.32779011  0.28622729  0.51713625     0.15100
H3913       H  0.28620040  0.34515976  0.58189856     0.15100
C3914       C  0.25410823  0.30667100  0.56905858    -0.23900
H3915       H  0.36605214  0.30829923  0.51613629     0.05300
H3916       H  0.37537136  0.32565492  0.54513483     0.08500
H3917       H  0.36110785  0.34271700  0.51716690     0.08500
H3918       H  0.25304271  0.28764423  0.57968047     0.08500
H3919       H  0.23968523  0.30692432  0.55261369     0.08500
H3920       H  0.24825181  0.32227378  0.58318301     0.05300
C3921       C  0.18330629  0.33718996  0.45915961    -0.20500
C3922       C  0.17953059  0.33838790  0.43162112    -0.07100
C3923       C  0.19144937  0.31840839  0.41581271     0.13800
C3924       C  0.20450975  0.29748939  0.42805615    -0.20600
C3925       C  0.20645728  0.29547242  0.45551585    -0.07100
C3926       C  0.19639066  0.31611349  0.47126653     0.13800
C3927       C  0.19943424  0.31642514  0.50089894    -0.23900
H3928       H  0.17541688  0.35212935  0.47182200     0.15100
H3929       H  0.21274871  0.28205841  0.41592348     0.15100
C3930       C  0.19057146  0.31815223  0.38590794    -0.23900
H3931       H  0.19215444  0.33498962  0.50973126     0.05300
H3932       H  0.22048770  0.31453730  0.50625448     0.08500
H3933       H  0.18795771  0.30015253  0.50979504     0.08500
H3934       H  0.20178113  0.33493294  0.37781381     0.08500
H3935       H  0.17020979  0.31840406  0.37830335     0.08500
H3936       H  0.19979536  0.30022871  0.37761599     0.05300
C3937       C  0.34876520  0.18250087  0.44197270    -0.20500
C3938       C  0.32785105  0.19631117  0.43012499    -0.07100
C3939       C  0.32796219  0.19939492  0.40226835     0.13800
C3940       C  0.34871074  0.18876945  0.38744577    -0.20600
C3941       C  0.36912828  0.17465374  0.39940543    -0.07100
C3942       C  0.36923396  0.17161691  0.42702839     0.13800
C3943       C  0.39133333  0.15767931  0.44095417    -0.23900
H3944       H  0.34903935  0.17984140  0.46316933     0.15100
H3945       H  0.34894060  0.19130236  0.36622115     0.15100
C3946       C  0.30669364  0.21407367  0.38782313    -0.23900
H3947       H  0.38901267  0.15827453  0.46272215     0.05300
H3948       H  0.41033694  0.16719007  0.43600851     0.08500
H3949       H  0.39184177  0.13675137  0.43491911     0.08500
H3950       H  0.30514498  0.23435029  0.39575841     0.08500
H3951       H  0.28765490  0.20363738  0.38995136     0.08500
H3952       H  0.31080785  0.21556551  0.36637190     0.05300
C3953       C  0.17838832  0.19445392  0.58679801    -0.20500
C3954       C  0.17587679  0.18802242  0.56007393    -0.07100
C3955       C  0.15422809  0.17259167  0.55160189     0.13800
C3956       C  0.13570664  0.16387598  0.57021862    -0.20600
C3957       C  0.13837164  0.17013810  0.59704388    -0.07100
C3958       C  0.16028472  0.18531332  0.60545301     0.13800
C3959       C  0.16594973  0.19140573  0.63398747    -0.23900
H3960       H  0.19524222  0.20583239  0.59335689     0.15100
H3961       H  0.11881246  0.15251628  0.56376845     0.15100
C3962       C  0.15011702  0.16607597  0.52285730    -0.23900
H3963       H  0.16497928  0.21294330  0.63728257     0.05300
H3964       H  0.18596631  0.18449599  0.63913401     0.08500
H3965       H  0.15222491  0.18153582  0.64757841     0.08500
H3966       H  0.16647126  0.15378112  0.51551438     0.08500
H3967       H  0.14915562  0.18448532  0.51117821     0.08500
H3968       H  0.13156118  0.15499537  0.51956954     0.05300
C3969       C  0.29838900  0.15920459  0.58219958    -0.20500
C3970       C  0.30335088  0.15187410  0.55613498    -0.07100
C3971       C  0.32322264  0.13346061  0.55069136     0.13800
C3972       C  0.33768488  0.12263688  0.57175467    -0.20600
C3973       C  0.33233729  0.12962581  0.59802289    -0.07100
C3974       C  0.31229775  0.14822497  0.60324112     0.13800
C3975       C  0.30480894  0.15717429  0.63060008    -0.23900
H3976       H  0.28341332  0.17382699  0.58620463     0.15100
H3977       H  0.35259856  0.10798166  0.56778713     0.15100
C3978       C  0.32903980  0.12536072  0.52276018    -0.23900
H3979       H  0.30685333  0.17886952  0.63196615     0.05300
H3980       H  0.31699374  0.14859216  0.64644684     0.08500
H3981       H  0.28403139  0.15180124  0.63444834     0.08500
H3982       H  0.33503800  0.14279789  0.51107735     0.08500
H3983       H  0.31122568  0.11646071  0.51369957     0.08500
H3984       H  0.34511146  0.11070903  0.52189894     0.05300
C3985       C  0.17904483  0.13966235  0.43983929    -0.20500
C3986       C  0.19733294  0.15797231  0.43003466    -0.07100
C3987       C  0.19816391  0.16301895  0.40256597     0.13800
C3988       C  0.18122782  0.14926955  0.38582177    -0.20600
C3989       C  0.16333650  0.13068332  0.39545500    -0.07100
C3990       C  0.16200116  0.12589284  0.42278715     0.13800
C3991       C  0.14377694  0.10537454  0.43379520    -0.23900
H3992       H  0.17825331  0.13595525  0.46086928     0.15100
H3993       H  0.18254079  0.15238905  0.36471227     0.15100
C3994       C  0.21760301  0.18183697  0.39030299    -0.23900
H3995       H  0.14554780  0.10386312  0.45558078     0.05300
H3996       H  0.14865051  0.08595867  0.42520916     0.08500
H3997       H  0.12314107  0.11036318  0.42899257     0.08500
H3998       H  0.23788117  0.17653338  0.39629077     0.08500
H3999       H  0.21323625  0.20229124  0.39641573     0.08500
H4000       H  0.21673515  0.18135072  0.36840703     0.05300
C4001       C  0.46862158  0.18401595  0.29019166    -0.20500
C4002       C  0.46375077  0.21094478  0.28724594    -0.07100
C4003       C  0.45083303  0.22439212  0.30796997     0.13800
C4004       C  0.44094508  0.21003508  0.32942984    -0.20600
C4005       C  0.44298161  0.18246442  0.33073817    -0.07100
C4006       C  0.45886328  0.16965098  0.31149640     0.13800
C4007       C  0.46526870  0.14061902  0.31134491    -0.23900
H4008       H  0.47957247  0.17357242  0.27519876     0.15100
H4009       H  0.43105088  0.22078102  0.34471429     0.15100
C4010       C  0.44715375  0.25379856  0.30792099    -0.23900
H4011       H  0.48690747  0.13813218  0.31181708     0.05300
H4012       H  0.45754840  0.13153380  0.29293610     0.08500
H4013       H  0.45722413  0.12925818  0.32792997     0.08500
H4014       H  0.43408821  0.25960521  0.29139355     0.08500
H4015       H  0.46648928  0.26377269  0.30611884     0.08500
H4016       H  0.43791706  0.26091444  0.32640100     0.05300
C4017       C  0.57453166  0.30377329  0.32430781    -0.20500
C4018       C  0.56309052  0.32746291  0.33311117    -0.07100
C4019       C  0.54072733  0.33692933  0.31902839     0.13800
C4020       C  0.53166236  0.32328542  0.29675175    -0.20600
C4021       C  0.54390010  0.30044167  0.28758956    -0.07100
C4022       C  0.56530353  0.29020127  0.30201054     0.13800
C4023       C  0.57887978  0.26509081  0.29412797    -0.23900
H4024       H  0.59199206  0.29622991  0.33349243     0.15100
H4025       H  0.51497221  0.33098118  0.28598558     0.15100
C4026       C  0.52608328  0.36162895  0.32644302    -0.23900
H4027       H  0.59418795  0.25928289  0.30861121     0.05300
H4028       H  0.58876803  0.26765653  0.27483113     0.08500
H4029       H  0.56436842  0.24879394  0.29293013     0.08500
H4030       H  0.53961764  0.37839736  0.32939784     0.08500
H4031       H  0.51430561  0.35815855  0.34442498     0.08500
H4032       H  0.51194229  0.36760603  0.31087101     0.05300
C4033       C  0.56788065  0.15551625  0.19418018    -0.20500
C4034       C  0.57212691  0.18160993  0.18627993    -0.07100
C4035       C  0.59147133  0.18676151  0.16692512     0.13800
C4036       C  0.60561946  0.16584729  0.15584822    -0.20600
C4037       C  0.60158251  0.13991106  0.16399376    -0.07100
C4038       C  0.58252422  0.13469276  0.18364636     0.13800
C4039       C  0.57682444  0.10750082  0.19395975    -0.23900
H4040       H  0.55301081  0.15129024  0.20884507     0.15100
H4041       H  0.62062266  0.16991868  0.14140734     0.15100
C4042       C  0.59742093  0.21418683  0.15778199    -0.23900
H4043       H  0.58154930  0.10671179  0.21533699     0.05300
H4044       H  0.58808204  0.09193247  0.18383353     0.08500
H4045       H  0.55565049  0.10294274  0.19127032     0.08500
H4046       H  0.60562628  0.22548015  0.17462844     0.08500
H4047       H  0.57929377  0.22365861  0.15025292     0.08500
H4048       H  0.61221079  0.21449827  0.14173499     0.05300
C4049       C  0.43316194  0.34846205  0.19720877    -0.20500
C4050       C  0.43337869  0.32479932  0.18300439    -0.07100
C4051       C  0.41559583  0.32138145  0.16171328     0.13800
C4052       C  0.39868959  0.34199906  0.15476693    -0.20600
C4053       C  0.39881310  0.36587024  0.16861801    -0.07100
C4054       C  0.41629442  0.36912673  0.19023951     0.13800
C4055       C  0.41835140  0.39461846  0.20535549    -0.23900
H4056       H  0.44687650  0.35108706  0.21340550     0.15100
H4057       H  0.38524514  0.33946723  0.13834763     0.15100
C4058       C  0.41378587  0.29584811  0.14664626    -0.23900
H4059       H  0.43506659  0.39447643  0.21947861     0.05300
H4060       H  0.40035216  0.39796566  0.21703070     0.08500
H4061       H  0.42141283  0.41124758  0.19160173     0.08500
H4062       H  0.41001778  0.27940609  0.16051293     0.08500
H4063       H  0.43225739  0.29220826  0.13575852     0.08500
H4064       H  0.39758045  0.29609349  0.13193258     0.05300
C4065       C  0.55879980  0.32877473  0.12932139    -0.20500
C4066       C  0.56773780  0.30990283  0.14745621    -0.07100
C4067       C  0.59518048  0.30760772  0.15194159     0.13800
C4068       C  0.61263076  0.32315343  0.13759227    -0.20600
C4069       C  0.60388038  0.34170674  0.11932828    -0.07100
C4070       C  0.57657440  0.34503569  0.11548019     0.13800
C4071       C  0.56610948  0.36495541  0.09630051    -0.23900
H4072       H  0.53787793  0.33095568  0.12615506     0.15100
H4073       H  0.63355569  0.32061158  0.14047047     0.15100
C4074       C  0.60667192  0.28811134  0.17105947    -0.23900
H4075       H  0.54434535  0.36438143  0.09518285     0.05300
H4076       H  0.57384604  0.36087421  0.07635283     0.08500
H4077       H  0.57198199  0.38503228  0.10250765     0.08500
H4078       H  0.59885789  0.26836610  0.16645131     0.08500
H4079       H  0.60170041  0.29364103  0.19161580     0.08500
H4080       H  0.62841265  0.28719604  0.16984536     0.05300
C4081       C  0.41062557  0.16393396  0.14364281    -0.20500
C4082       C  0.40270014  0.17333959  0.11897256    -0.07100
C4083       C  0.41686894  0.19459280  0.10752660     0.13800
C4084       C  0.43698503  0.20682445  0.12193775    -0.20600
C4085       C  0.44430674  0.19822403  0.14715388    -0.07100
C4086       C  0.43116732  0.17587553  0.15791687     0.13800
C4087       C  0.43805856  0.16431103  0.18445036    -0.23900
H4088       H  0.40006948  0.14755238  0.15224649     0.15100
H4089       H  0.44707984  0.22340223  0.11313158     0.15100
C4090       C  0.41241394  0.20481859  0.07992876    -0.23900
H4091       H  0.42622558  0.14648754  0.18888861     0.05300
H4092       H  0.43409562  0.17876722  0.20034953     0.08500
H4093       H  0.45901419  0.15842507  0.18476749     0.08500
H4094       H  0.40520460  0.22534931  0.08088403     0.08500
H4095       H  0.39850044  0.19300575  0.06811764     0.08500
H4096       H  0.43126653  0.20463418  0.06899110     0.05300
C4097       C  0.32483159  0.57602335  0.29528259    -0.20500
C4098       C  0.33100383  0.56729633  0.32105389    -0.07100
C4099       C  0.31470545  0.54724843  0.33211572     0.13800
C4100       C  0.29316187  0.53758607  0.31776256    -0.20600
C4101       C  0.28665530  0.54722530  0.29277271    -0.07100
C4102       C  0.30306835  0.56631719  0.28111840     0.13800
C4103       C  0.29792784  0.57657534  0.25369628    -0.23900
H4104       H  0.33583151  0.59168950  0.28626483     0.15100
H4105       H  0.28070739  0.52268758  0.32656148     0.15100
C4106       C  0.31887217  0.53598269  0.35934110    -0.23900
H4107       H  0.31360295  0.59025909  0.24707952     0.05300
H4108       H  0.27915097  0.58751551  0.25320672     0.08500
H4109       H  0.29708750  0.55995620  0.23949265     0.08500
H4110       H  0.30265948  0.52258135  0.36520234     0.08500
H4111       H  0.31974100  0.55168442  0.37446470     0.08500
H4112       H  0.33691193  0.52398269  0.35963135     0.05300
C4113       C  0.28902078  0.46581025  0.17737585    -0.20500
C4114       C  0.28460799  0.46022780  0.20405765    -0.07100
C4115       C  0.30358613  0.44510637  0.21782909     0.13800
C4116       C  0.32494039  0.43447803  0.20397912    -0.20600
C4117       C  0.32805043  0.43810276  0.17660987    -0.07100
C4118       C  0.31037016  0.45554381  0.16360812     0.13800
C4119       C  0.31226355  0.46370682  0.13499278    -0.23900
H4120       H  0.27541933  0.47825012  0.16671577     0.15100
H4121       H  0.33894397  0.42312533  0.21501053     0.15100
C4122       C  0.30182035  0.43978772  0.24705792    -0.23900
H4123       H  0.31358099  0.48545743  0.13383028     0.05300
H4124       H  0.29436595  0.45713770  0.12424882     0.08500
H4125       H  0.32927890  0.45591018  0.12434634     0.08500
H4126       H  0.28380098  0.42829145  0.25142062     0.08500
H4127       H  0.30172608  0.45863147  0.25812878     0.08500
H4128       H  0.31874955  0.42819450  0.25440165     0.05300
C4129       C  0.16840476  0.61684102  0.15803094    -0.20500
C4130       C  0.16663991  0.60821792  0.13189131    -0.07100
C4131       C  0.17748797  0.58361473  0.12527614     0.13800
C4132       C  0.18775462  0.56741560  0.14535648    -0.20600
C4133       C  0.18837860  0.57550219  0.17202330    -0.07100
C4134       C  0.17869100  0.60096792  0.17821083     0.13800
C4135       C  0.17871040  0.61189438  0.20590427    -0.23900
H4136       H  0.16240319  0.63657058  0.16263419     0.15100
H4137       H  0.19555980  0.54836151  0.14005348     0.15100
C4138       C  0.17914100  0.57485002  0.09694583    -0.23900
H4139       H  0.17000536  0.63184913  0.20680508     0.05300
H4140       H  0.19914751  0.61350900  0.21340312     0.08500
H4141       H  0.16686913  0.59905460  0.21899438     0.08500
H4142       H  0.19107242  0.58911871  0.08552718     0.08500
H4143       H  0.15928757  0.57365398  0.08815677     0.08500
H4144       H  0.18842319  0.55523528  0.09509999     0.05300
C4145       C  0.17373123  0.41456009  0.31526237    -0.20500
C4146       C  0.18299372  0.43990233  0.32104507    -0.07100
C4147       C  0.18399153  0.44854895  0.34748437     0.13800
C4148       C  0.17523239  0.43175140  0.36755768    -0.20600
C4149       C  0.16474322  0.40690816  0.36173775    -0.07100
C4150       C  0.16516855  0.39769302  0.33544345     0.13800
C4151       C  0.15772947  0.36979822  0.32881583    -0.23900
H4152       H  0.17341813  0.40791053  0.29493591     0.15100
H4153       H  0.17679417  0.43794371  0.38789647     0.15100
C4154       C  0.19375559  0.47568287  0.35443763    -0.23900
H4155       H  0.15944908  0.36575445  0.30735648     0.05300
H4156       H  0.13726990  0.36582661  0.33471249     0.08500
H4157       H  0.17088824  0.35608360  0.33947705     0.08500
H4158       H  0.18142735  0.49064407  0.34446377     0.08500
H4159       H  0.21441841  0.47802705  0.34795791     0.08500
H4160       H  0.19295381  0.47937920  0.37602336     0.05300
C4161       C  0.12005922  0.56774666  0.30268488    -0.20500
C4162       C  0.14742111  0.56590407  0.30501948    -0.07100
C4163       C  0.16038210  0.58087242  0.32493756     0.13800
C4164       C  0.14618005  0.59961683  0.33936812    -0.20600
C4165       C  0.11943192  0.60352988  0.33467331    -0.07100
C4166       C  0.10583300  0.58618436  0.31743877     0.13800
C4167       C  0.07631292  0.58662410  0.31480426    -0.23900
H4168       H  0.10984049  0.55546934  0.28845115     0.15100
H4169       H  0.15629244  0.61222151  0.35340495     0.15100
C4170       C  0.18904312  0.57711638  0.33142846    -0.23900
H4171       H  0.06902145  0.57022294  0.30225140     0.05300
H4172       H  0.06953708  0.60509246  0.30560062     0.08500
H4173       H  0.06719065  0.58452826  0.33452761     0.08500
H4174       H  0.20152385  0.58398133  0.31493270     0.08500
H4175       H  0.19291422  0.55604434  0.33547406     0.08500
H4176       H  0.19496762  0.58849770  0.34921366     0.05300
C4177       C  0.10360721  0.42620669  0.17452105    -0.20500
C4178       C  0.11802527  0.40757544  0.16025158    -0.07100
C4179       C  0.14555781  0.40946013  0.15957861     0.13800
C4180       C  0.15812873  0.42948367  0.17398046    -0.20600
C4181       C  0.14387888  0.44773971  0.18920871    -0.07100
C4182       C  0.11608697  0.44635054  0.18890115     0.13800
C4183       C  0.09932614  0.46605316  0.20322444    -0.23900
H4184       H  0.08237853  0.42462251  0.17477215     0.15100
H4185       H  0.17938211  0.43033234  0.17391273     0.15100
C4186       C  0.16175850  0.38970515  0.14468102    -0.23900
H4187       H  0.07809712  0.46283434  0.19927128     0.05300
H4188       H  0.10438910  0.48623087  0.19662131     0.08500
H4189       H  0.10233756  0.46432722  0.22483203     0.08500
H4190       H  0.15764348  0.36962861  0.15217163     0.08500
H4191       H  0.18311631  0.39356784  0.14693140     0.08500
H4192       H  0.15695636  0.39056512  0.12334458     0.05300
C4193       C  0.79164911  0.79443368  0.07266349    -0.20500
C4194       C  0.79116064  0.79068744  0.04542962    -0.07100
C4195       C  0.80309284  0.80937379  0.02883433     0.13800
C4196       C  0.81637722  0.83085339  0.04003240    -0.20600
C4197       C  0.81921081  0.83367070  0.06759698    -0.07100
C4198       C  0.80573748  0.81523366  0.08413433     0.13800
C4199       C  0.80617830  0.81550573  0.11399669    -0.23900
H4200       H  0.78201734  0.78014728  0.08525401     0.15100
H4201       H  0.82497365  0.84479936  0.02668356     0.15100
C4202       C  0.80159607  0.80689317  0.99919857    -0.23900
H4203       H  0.78582076  0.81756274  0.12144464     0.05300
H4204       H  0.81802087  0.83124067  0.12308882     0.08500
H4205       H  0.81427712  0.79662720  0.12128341     0.08500
H4206       H  0.78073993  0.80590576  0.99286258     0.08500
H4207       H  0.81191575  0.78890745  0.99260340     0.08500
H4208       H  0.81090913  0.82388413  0.98913242     0.05300
C4209       C  0.67652349  0.80027465  0.97179360    -0.20500
C4210       C  0.70134084  0.79330645  0.96231663    -0.07100
C4211       C  0.71343002  0.80957089  0.94328883     0.13800
C4212       C  0.69990485  0.83144605  0.93338818    -0.20600
C4213       C  0.67411720  0.83763580  0.94132762    -0.07100
C4214       C  0.66264469  0.82185996  0.96162978     0.13800
C4215       C  0.63542566  0.82662162  0.97248039    -0.23900
H4216       H  0.66744073  0.78808930  0.98674045     0.15100
H4217       H  0.70946661  0.84245791  0.91810507     0.15100
C4218       C  0.74065035  0.80409936  0.93304631    -0.23900
H4219       H  0.62939808  0.81102506  0.98653226     0.05300
H4220       H  0.62045765  0.82683285  0.95659508     0.08500
H4221       H  0.63497355  0.84529934  0.98366573     0.08500
H4222       H  0.74071202  0.78550722  0.92159172     0.08500
H4223       H  0.75469681  0.80277177  0.94976630     0.08500
H4224       H  0.74773028  0.81985184  0.91968282     0.05300
C4225       C  0.65435524  0.68284411  0.10970028    -0.20500
C4226       C  0.63369066  0.66764724  0.09922084    -0.07100
C4227       C  0.63405580  0.66077874  0.07220626     0.13800
C4228       C  0.65521546  0.66905031  0.05648789    -0.20600
C4229       C  0.67566326  0.68456147  0.06688579    -0.07100
C4230       C  0.67532076  0.69138784  0.09389481     0.13800
C4231       C  0.69735887  0.70696784  0.10627192    -0.23900
H4232       H  0.65406580  0.68802187  0.13045810     0.15100
H4233       H  0.65552736  0.66388112  0.03573036     0.15100
C4234       C  0.61163808  0.64599383  0.05949307    -0.23900
H4235       H  0.69440072  0.70968942  0.12780405     0.05300
H4236       H  0.69855780  0.72672063  0.09713391     0.08500
H4237       H  0.71622857  0.69653357  0.10337393     0.08500
H4238       H  0.59295256  0.65657592  0.06296862     0.08500
H4239       H  0.61019518  0.62587738  0.06763786     0.08500
H4240       H  0.61432287  0.64408884  0.03784139     0.05300
C4241       C  0.84780051  0.70420175  0.93589915    -0.20500
C4242       C  0.82168086  0.69666819  0.93099828    -0.07100
C4243       C  0.81639458  0.67841707  0.91044808     0.13800
C4244       C  0.83728258  0.66842443  0.89540653    -0.20600
C4245       C  0.86326321  0.67623967  0.90020885    -0.07100
C4246       C  0.86861661  0.69427719  0.92087414     0.13800
C4247       C  0.89603818  0.70284321  0.92836672    -0.23900
H4248       H  0.85210194  0.71774153  0.95189477     0.15100
H4249       H  0.83330822  0.65461061  0.87956937     0.15100
C4250       C  0.78898443  0.66859818  0.90481515    -0.23900
H4251       H  0.89801690  0.72439719  0.92566912     0.05300
H4252       H  0.91151796  0.69304846  0.91671061     0.08500
H4253       H  0.89971660  0.69805400  0.94941980     0.08500
H4254       H  0.77640818  0.68510945  0.89826909     0.08500
H4255       H  0.78056383  0.65953114  0.92282605     0.08500
H4256       H  0.78872097  0.65354060  0.88892835     0.05300
C4257       C  0.69782935  0.62568200  0.93420291    -0.20500
C4258       C  0.69445101  0.65293198  0.93590860    -0.07100
C4259       C  0.67522422  0.66504189  0.91952053     0.13800
C4260       C  0.66092606  0.64968217  0.90137411    -0.20600
C4261       C  0.66561773  0.62278403  0.89859421    -0.07100
C4262       C  0.68398822  0.61048322  0.91565669     0.13800
C4263       C  0.68921567  0.58133751  0.91483395    -0.23900
H4264       H  0.71220575  0.61627031  0.94679983     0.15100
H4265       H  0.64660331  0.65891037  0.88856085     0.15100
C4266       C  0.66925254  0.69402660  0.92096538    -0.23900
H4267       H  0.70128715  0.57490718  0.93190589     0.05300
H4268       H  0.70035412  0.57623160  0.89685792     0.08500
H4269       H  0.67057190  0.57006744  0.91539685     0.08500
H4270       H  0.68631118  0.70567551  0.91398935     0.08500
H4271       H  0.66433027  0.69959297  0.94154314     0.08500
H4272       H  0.65228942  0.69937163  0.90826758     0.05300
C4273       C  0.81187271  0.62572841  0.05558960    -0.20500
C4274       C  0.80669694  0.65259668  0.05887741    -0.07100
C4275       C  0.81701203  0.66579294  0.08143266     0.13800
C4276       C  0.83175272  0.65172773  0.10003438    -0.20600
C4277       C  0.83658363  0.62493564  0.09686929    -0.07100
C4278       C  0.82666989  0.61176380  0.07436143     0.13800
C4279       C  0.83126363  0.58289060  0.07043755    -0.23900
H4280       H  0.80418523  0.61560384  0.03837706     0.15100
H4281       H  0.83863729  0.66146646  0.11779348     0.15100
C4282       C  0.81150230  0.69439400  0.08696725    -0.23900
H4283       H  0.82283219  0.57573200  0.05150009     0.05300
H4284       H  0.82179792  0.57181081  0.08666980     0.08500
H4285       H  0.85268219  0.57896988  0.07029990     0.08500
H4286       H  0.78999915  0.69785587  0.08691973     0.08500
H4287       H  0.82108707  0.70696805  0.07193902     0.08500
H4288       H  0.81926169  0.70064332  0.10651070     0.05300
C4289       C  0.29649597  0.83194272  0.42468083    -0.20500
C4290       C  0.32076890  0.83990843  0.43579124    -0.07100
C4291       C  0.33018051  0.82548758  0.45798230     0.13800
C4292       C  0.31661175  0.80299495  0.46639375    -0.20600
C4293       C  0.29366752  0.79412261  0.45382125    -0.07100
C4294       C  0.28290047  0.80952625  0.43328811     0.13800
C4295       C  0.25786562  0.80195317  0.41910527    -0.23900
H4296       H  0.28864102  0.84170315  0.40761730     0.15100
H4297       H  0.32435040  0.79193182  0.48290471     0.15100
C4298       C  0.35496742  0.83267915  0.47278193    -0.23900
H4299       H  0.25305090  0.81573507  0.40284803     0.05300
H4300       H  0.24113616  0.80231870  0.43305839     0.08500
H4301       H  0.25986014  0.78207221  0.41030781     0.08500
H4302       H  0.35213871  0.85143066  0.48350252     0.08500
H4303       H  0.37189445  0.83413625  0.45927131     0.08500
H4304       H  0.36013775  0.81779426  0.48790438     0.05300
C4305       C  0.18114521  0.79749208  0.53021296    -0.20500
C4306       C  0.20724862  0.79327673  0.53747907    -0.07100
C4307       C  0.21974572  0.81122794  0.55470428     0.13800
C4308       C  0.20515853  0.83188729  0.56563413    -0.20600
C4309       C  0.17812873  0.83498876  0.56023932    -0.07100
C4310       C  0.16635263  0.81784669  0.54113131     0.13800
C4311       C  0.13800454  0.81975288  0.53224644    -0.23900
H4312       H  0.17185204  0.78400468  0.51643468     0.15100
H4313       H  0.21519159  0.84471551  0.57925187     0.15100
C4314       C  0.24850216  0.80896419  0.56147918    -0.23900
H4315       H  0.13263973  0.80389473  0.51812015     0.05300
H4316       H  0.13453702  0.83840642  0.52168223     0.08500
H4317       H  0.12435521  0.81776480  0.54902346     0.08500
H4318       H  0.26031173  0.80881106  0.54311074     0.08500
H4319       H  0.25212529  0.79070630  0.57280362     0.08500
H4320       H  0.25542641  0.82568356  0.57381668     0.05300
C4321       C  0.17727110  0.69697751  0.40540612    -0.20500
C4322       C  0.17647852  0.68863516  0.43172148    -0.07100
C4323       C  0.15571184  0.67202491  0.43996993     0.13800
C4324       C  0.13653421  0.66394745  0.42160420    -0.20600
C4325       C  0.13764587  0.67173049  0.39508434    -0.07100
C4326       C  0.15865408  0.68816670  0.38680975     0.13800
C4327       C  0.16312377  0.69565988  0.35840000    -0.23900
H4328       H  0.19336316  0.70938757  0.39896726     0.15100
H4329       H  0.12035498  0.65168288  0.42807595     0.15100
C4330       C  0.15316734  0.66345812  0.46832018    -0.23900
H4331       H  0.18347533  0.69046693  0.35268399     0.05300
H4332       H  0.16051158  0.71717149  0.35603366     0.08500
H4333       H  0.14998434  0.68523736  0.34442148     0.08500
H4334       H  0.15255820  0.68097283  0.48139535     0.08500
H4335       H  0.16998981  0.65089472  0.47399465     0.08500
H4336       H  0.13495208  0.65187249  0.47160212     0.05300
C4337       C  0.32153952  0.68931476  0.59030318    -0.20500
C4338       C  0.32845351  0.69660257  0.56438225    -0.07100
C4339       C  0.35503239  0.69344680  0.55646889     0.13800
C4340       C  0.37312807  0.68224801  0.57407602    -0.20600
C4341       C  0.36568431  0.67340907  0.59903987    -0.07100
C4342       C  0.33989653  0.67815874  0.60776724     0.13800
C4343       C  0.33189761  0.67213057  0.63568389    -0.23900
H4344       H  0.30158339  0.69213452  0.59700186     0.15100
H4345       H  0.39351851  0.68106478  0.56860766     0.15100
C4346       C  0.36501042  0.70210891  0.52985996    -0.23900
H4347       H  0.31106485  0.67726083  0.63936784     0.05300
H4348       H  0.34426637  0.68358659  0.64967365     0.08500
H4349       H  0.33436296  0.65093960  0.63972553     0.08500
H4350       H  0.36079915  0.72328205  0.52686955     0.08500
H4351       H  0.35571655  0.69020409  0.51400037     0.08500
H4352       H  0.38655789  0.69945306  0.52802831     0.05300
C4353       C  0.17837862  0.64059716  0.55407729    -0.20500
C4354       C  0.19928963  0.65628610  0.56319999    -0.07100
C4355       C  0.20291631  0.65954533  0.59074856     0.13800
C4356       C  0.18581198  0.64696987  0.60822909    -0.20600
C4357       C  0.16524731  0.63080610  0.59929783    -0.07100
C4358       C  0.16123084  0.62787160  0.57178554     0.13800
C4359       C  0.13973603  0.61061619  0.56089302    -0.23900
H4360       H  0.17538480  0.63839857  0.53300669     0.15100
H4361       H  0.18900029  0.64914252  0.62927955     0.15100
C4362       C  0.22552516  0.67522372  0.60212383    -0.23900
H4363       H  0.14017804  0.60976195  0.53900640     0.05300
H4364       H  0.12029157  0.61831649  0.56671060     0.08500
H4365       H  0.14215914  0.59038212  0.56838218     0.08500
H4366       H  0.22313294  0.69639085  0.59761451     0.08500
H4367       H  0.24435340  0.66802912  0.59390024     0.08500
H4368       H  0.22666676  0.67343020  0.62393032     0.05300
C4369       C  0.29999018  0.65733786  0.41089053    -0.20500
C4370       C  0.30622546  0.65220664  0.43725393    -0.07100
C4371       C  0.32832477  0.63670650  0.44332014     0.13800
C4372       C  0.34300395  0.62556853  0.42266030    -0.20600
C4373       C  0.33609703  0.62986191  0.39616495    -0.07100
C4374       C  0.31479146  0.64674157  0.39027799     0.13800
C4375       C  0.30748204  0.65473093  0.36258171    -0.23900
H4376       H  0.28376365  0.67031827  0.40633717     0.15100
H4377       H  0.35948234  0.61296624  0.42721577     0.15100
C4378       C  0.33630946  0.63199008  0.47152327    -0.23900
H4379       H  0.28744593  0.64744178  0.35783354     0.05300
H4380       H  0.30769566  0.67649425  0.36108470     0.08500
H4381       H  0.32121286  0.64725896  0.34753242     0.08500
H4382       H  0.32003727  0.62214681  0.48220871     0.08500
H4383       H  0.34086227  0.65101448  0.48130428     0.08500
H4384       H  0.35396667  0.61933467  0.47287658     0.05300
loop_ 
_geom_bond_atom_site_label_1 
_geom_bond_atom_site_label_2 
_geom_bond_distance 
_geom_bond_site_symmetry_2 
_ccdc_geom_bond_type 
O1           C17   1.277       .  A
O1           Zn7   2.017       .  S
C2           O18   1.272       .  A
C2           O15   1.276       .  A
C2         C4338   1.499       .  S
O3           C16   1.284       .  A
O3          Cd10   2.113       .  S
O4           C22   1.272       .  A
O4          Cd13   2.039       .  S
O5           C19   1.276       .  A
O5           Cd9   2.057       .  S
O6           C17   1.274       .  A
O6           Cd9   2.063       .  S
Zn7          O18   2.017       .  S
Zn7          O20   1.985       .  S
Zn7          O12   1.898       .  S
O8           C19   1.275       .  A
O8          Cd13   2.065       .  S
Cd9          O11   2.094       .  S
Cd9          O12   1.979       .  S
Cd10         O14   2.072       .  S
Cd10         O23   2.114       .  S
Cd10         O12   1.981       .  S
O11          C21   1.279       .  A
O12         Cd13   1.963       .  S
Cd13         O15   2.081       .  S
O14          C21   1.275       .  A
C16          O20   1.273       .  A
C16        C4370   1.471       .  S
C17        C4293   1.490       .  S
C19        C4306   1.477       .  S
C21        C4322   1.484       .  S
C22          O23   1.283       .  A
C22        C4354   1.485       .  S
O24          C40   1.273       .  A
O24         Zn30   2.010   1_556  S
C25          O41   1.274       .  A
C25          O38   1.277       .  A
C25        C4194   1.470       .  S
O26          C39   1.284       .  A
O26         Cd33   2.122       .  S
O27          C45   1.279       .  A
O27         Cd36   2.095       .  S
O28          C42   1.277       .  A
O28         Cd32   2.072       .  S
O29          C40   1.275       .  A
O29         Cd32   2.084       .  S
Zn30         O41   1.999       .  S
Zn30         O43   1.978       .  S
Zn30         O35   1.896       .  S
O31          C42   1.279       .  A
O31         Cd36   2.083   1_556  S
Cd32         O34   2.040       .  S
Cd32         O35   1.962   1_556  S
Cd33         O37   2.111   1_554  S
Cd33         O46   2.073       .  S
Cd33         O35   1.984       .  S
O34          C44   1.271       .  A
O35         Cd36   1.985       .  S
Cd36         O38   2.075       .  S
O37          C44   1.285       .  A
C39          O43   1.271       .  A
C39        C4274   1.488       .  S
C40        C4242   1.488       .  S
C42        C4210   1.490       .  S
C44        C4258   1.491       .  S
C45          O46   1.275       .  A
C45        C4229   1.482       .  S
O47          C63   1.277       .  A
O47         Zn53   2.043       .  S
C48          O64   1.279       .  A
C48          O61   1.274       .  A
C48        C4114   1.494       .  S
O49          C62   1.281       .  A
O49         Cd56   2.100       .  S
O50          C68   1.276       .  A
O50         Cd59   2.084       .  S
O51          C65   1.277       .  A
O51         Cd55   2.081       .  S
O52          C63   1.276       .  A
O52         Cd55   2.083       .  S
Zn53         O64   2.021       .  S
Zn53         O66   1.997       .  S
Zn53         O58   1.909       .  S
O54          C65   1.275       .  A
O54         Cd59   2.059       .  S
Cd55         O57   2.055       .  S
Cd55         O58   1.966       .  S
Cd56         O60   2.103       .  S
Cd56         O69   2.066       .  S
Cd56         O58   1.985       .  S
O57          C67   1.274       .  A
O58         Cd59   1.981       .  S
Cd59         O61   2.061       .  S
O60          C67   1.282       .  A
C62          O66   1.275       .  A
C62        C4181   1.492       .  S
C63        C4133   1.506       .  S
C65        C4101   1.485       .  S
C67        C4162   1.489       .  S
C68          O69   1.273       .  A
C68        C4146   1.473       .  S
O70          C86   1.273       .  A
O70         Zn76   2.011       .  S
C71          O87   1.276       .  A
C71          O84   1.274       .  A
C71        C4002   1.491       .  S
O72          C85   1.286       .  A
O72         Cd79   2.107       .  S
O73          C91   1.279       .  A
O73         Cd82   2.087       .  S
O74          C88   1.277       .  A
O74         Cd78   2.067       .  S
O75          C86   1.277       .  A
O75         Cd78   2.093       .  S
Zn76         O87   2.001       .  S
Zn76         O89   1.974       .  S
Zn76         O81   1.889       .  S
O77          C88   1.277       .  A
O77         Cd82   2.056       .  S
Cd78         O80   2.034       .  S
Cd78         O81   1.952       .  S
Cd79         O83   2.129       .  S
Cd79         O92   2.069       .  S
Cd79         O81   1.977       .  S
O80          C90   1.271       .  A
O81         Cd82   1.974       .  S
Cd82         O84   2.067       .  S
O83          C90   1.285       .  A
C85          O89   1.270       .  A
C85        C4085   1.496       .  S
C86        C4034   1.490       .  S
C88        C4021   1.485       .  S
C90        C4066   1.491       .  S
C91          O92   1.274       .  A
C91        C4050   1.484       .  S
O93         C109   1.275       .  A
O93         Zn99   2.019       .  S
C94         O110   1.277       .  A
C94         O107   1.275       .  A
C94        C3906   1.492       .  S
O95         C108   1.281       .  A
O95        Cd102   2.105       .  S
O96         C114   1.279       .  A
O96        Cd105   2.095       .  S
O97         C111   1.279       .  A
O97        Cd101   2.077       .  S
O98         C109   1.276       .  A
O98        Cd101   2.092       .  S
Zn99        O110   2.001       .  S
Zn99        O112   1.983       .  S
Zn99        O104   1.889       .  S
O100        C111   1.275       .  A
O100       Cd105   2.067       .  S
Cd101       O103   2.038       .  S
Cd101       O104   1.959       .  S
Cd102       O106   2.087       .  S
Cd102       O115   2.063       .  S
Cd102       O104   1.979       .  S
O103        C113   1.272       .  A
O104       Cd105   1.979       .  S
Cd105       O107   2.070       .  S
O106        C113   1.280       .  A
C108        O112   1.272       .  A
C108       C3970   1.470       .  S
C109       C3938   1.501       .  S
C111       C3925   1.490       .  S
C113       C3986   1.478       .  S
C114        O115   1.273       .  A
C114       C3954   1.479       .  S
O116        C132   1.276       .  A
O116       Zn122   2.021       .  S
C117        O133   1.272       .  A
C117        O130   1.280       .  A
C117       C3845   1.497       .  S
O118        C131   1.280       .  A
O118       Cd125   2.088       .  S
O119        C137   1.274       .  A
O119       Cd128   2.060       .  S
O120        C134   1.273       .  A
O120       Cd124   2.042       .  S
O121        C132   1.274       .  A
O121       Cd124   2.070       .  S
Zn122       O133   2.013       .  S
Zn122       O135   1.984       .  S
Zn122       O127   1.895       .  S
O123        C134   1.280       .  A
O123       Cd128   2.088       .  S
Cd124       O126   2.080       .  S
Cd124       O127   1.977       .  S
Cd125       O129   2.064       .  S
Cd125       O138   2.100       .  S
Cd125       O127   1.981       .  S
O126        C136   1.276       .  A
O127       Cd128   1.971       .  S
Cd128       O130   2.104       .  S
O129        C136   1.273       .  A
C131        O135   1.274       .  A
C131       C3874   1.493       .  S
C132       C3810   1.472       .  S
C134       C3826   1.471       .  S
C136       C3861   1.483       .  S
C137        O138   1.282       .  A
C137       C3890   1.491       .  S
O139        C155   1.275       .  A
O139       Zn145   1.997       .  S
C140        O156   1.271       .  A
C140        O153   1.275       .  A
C140       C3762   1.491       .  S
O141        C154   1.284       .  A
O141       Cd148   2.110       .  S
O142        C160   1.275       .  A
O142       Cd151   2.040       .  S
O143        C157   1.271       .  A
O143       Cd147   2.048   1_655  S
O144        C155   1.275       .  A
O144       Cd147   2.070       .  S
Zn145       O156   2.007   1_455  S
Zn145       O158   1.976       .  S
Zn145       O150   1.896   1_455  S
O146        C157   1.277       .  A
O146       Cd151   2.071       .  S
Cd147       O149   2.083       .  S
Cd147       O150   1.976   1_455  S
Cd148       O152   2.077       .  S
Cd148       O161   2.109   1_455  S
Cd148       O150   1.982   1_455  S
O149        C159   1.277       .  A
O150       Cd151   1.963       .  S
Cd151       O153   2.075       .  S
O152        C159   1.276       .  A
C154        O158   1.270       .  A
C154       C3794   1.497       .  S
C155       C3714   1.493       .  S
C157       C3730   1.489       .  S
C159       C3749   1.486       .  S
C160        O161   1.282       .  A
C160       C3781   1.494       .  S
O162        C178   1.273       .  A
O162       Zn168   2.016   1_545  S
C163        O179   1.276       .  A
C163        O176   1.276       .  A
C163       C3618   1.490       .  S
O164        C177   1.282       .  A
O164       Cd171   2.103       .  S
O165        C183   1.280       .  A
O165       Cd174   2.096       .  S
O166        C180   1.280       .  A
O166       Cd170   2.084       .  S
O167        C178   1.278       .  A
O167       Cd170   2.090       .  S
Zn168       O179   1.988       .  S
Zn168       O181   1.975       .  S
Zn168       O173   1.878   1_565  S
O169        C180   1.275       .  A
O169       Cd174   2.063   1_545  S
Cd170       O172   2.043       .  S
Cd170       O173   1.960       .  S
Cd171       O175   2.089   1_565  S
Cd171       O184   2.052       .  S
Cd171       O173   1.969   1_565  S
O172        C182   1.273       .  A
O173       Cd174   1.975   1_545  S
Cd174       O176   2.071       .  S
O175        C182   1.282       .  A
C177        O181   1.268       .  A
C177       C3682   1.496       .  S
C178       C3650   1.493       .  S
C180       C3634   1.488       .  S
C182       C3698   1.475       .  S
C183        O184   1.272       .  A
C183       C3666   1.483       .  S
O185        C201   1.276       .  A
O185       Zn191   2.018       .  S
C186        O202   1.275       .  A
C186        O199   1.271       .  A
C186       C3554   1.502       .  S
O187        C200   1.283       .  A
O187       Cd194   2.109       .  S
O188        C206   1.269       .  A
O188       Cd197   2.028       .  S
O189        C203   1.277       .  A
O189       Cd193   2.073       .  S
O190        C201   1.275       .  A
O190       Cd193   2.065       .  S
Zn191       O202   2.035       .  S
Zn191       O204   1.980       .  S
Zn191       O196   1.906       .  S
O192        C203   1.273       .  A
O192       Cd197   2.043       .  S
Cd193       O195   2.105       .  S
Cd193       O196   1.985       .  S
Cd194       O198   2.083       .  S
Cd194       O207   2.108       .  S
Cd194       O196   1.983       .  S
O195        C205   1.280       .  A
O196       Cd197   1.954       .  S
Cd197       O199   2.068       .  S
O198        C205   1.276       .  A
C200        O204   1.274       .  A
C200       C3605   1.497       .  S
C201       C3522   1.466       .  S
C203       C3538   1.471       .  S
C205       C3570   1.493       .  S
C206        O207   1.283       .  A
C206       C3586   1.486       .  S
C208        C209   1.557       .  S
C208        C214   1.530       .  S
C208        C212   1.535       .  S
C208       C3506   1.543       .  S
C209        H216   1.081       .  S
C209        C210   1.372       .  D
C210        C211   1.541       .  S
C210       C3490   1.497       .  S
C211        C215   1.541       .  S
C211        C213   1.553       .  S
C211        H217   1.105       .  S
C212        H218   1.083       .  S
C212        C213   1.367       .  D
C213       C3573   1.501       .  S
C214        H219   1.087       .  S
C214        C215   1.355       .  D
C215       C3685   1.487       .  S
C220        C221   1.548       .  S
C220        C226   1.535       .  S
C220        C224   1.541       .  S
C220       C3477   1.544       .  S
C221        H228   1.080       .  S
C221        C222   1.366       .  D
C222        C223   1.544       .  S
C222       C3653   1.492       .  S
C223        C227   1.536       .  S
C223        C225   1.543       .  S
C223        H229   1.110       .  S
C224        H230   1.083       .  S
C224        C225   1.370       .  D
C225       C3458   1.490       .  S
C226        H231   1.087       .  S
C226        C227   1.357       .  D
C227       C3778   1.482       .  S
C232        C233   1.552       .  S
C232        C238   1.529       .  S
C232        C236   1.541       .  S
C232       C3442   1.552       .  S
C233        H240   1.080       .  S
C233        C234   1.373       .  D
C234        C235   1.551       .  S
C234       C3413   1.506       .  S
C235        C239   1.537       .  S
C235        C237   1.549       .  S
C235        H241   1.111       .  S
C236        H242   1.083       .  S
C236        C237   1.369       .  D
C237       C3426   1.496       .  S
C238        H243   1.088       .  S
C238        C239   1.357       .  D
C239       C3589   1.483       .  S
C244        C245   1.551       .  S
C244        C250   1.527       .  S
C244        C248   1.540       .  S
C244       C3394   1.539       .  S
C245        H252   1.082       .  S
C245        C246   1.371       .  D
C246        C247   1.543       .  S
C246       C3378   1.487       .  S
C247        C251   1.538       .  S
C247        C249   1.545       .  S
C247        H253   1.108       .  S
C248        H254   1.086       .  S
C248        C249   1.368       .  D
C249       C3746   1.496       .  S
C250        H255   1.088       .  S
C250        C251   1.354       .  D
C251       C3989   1.477       .  S
C256        C257   1.534       .  S
C256        C262   1.531       .  S
C256        C260   1.556       .  S
C256       C3362   1.542       .  S
C257        H264   1.084       .  S
C257        C258   1.364       .  D
C258        C259   1.544       .  S
C258       C3957   1.487       .  S
C259        C263   1.541       .  S
C259        C261   1.543       .  S
C259        H265   1.108       .  S
C260        H266   1.081       .  S
C260        C261   1.372       .  D
C261       C3346   1.498       .  S
C262        H267   1.087       .  S
C262        C263   1.357       .  D
C263       C3333   1.484       .  S
C268        C269   1.538       .  S
C268        C274   1.529       .  S
C268        C272   1.550       .  S
C268       C4309   1.537       .  S
C269        H276   1.084       .  S
C269        C270   1.365       .  D
C270        C271   1.536       .  S
C270       C3314   1.478       .  S
C271        C275   1.536       .  S
C271        C273   1.541       .  S
C271        H277   1.111       .  S
C272        H278   1.081       .  S
C272        C273   1.370       .  D
C273       C3282   1.486       .  S
C274        H279   1.088       .  S
C274        C275   1.355       .  D
C275       C3301   1.474       .  S
O280        C296   1.276       .  A
O280       Zn286   2.034   1_455  S
C281        O297   1.278       .  A
C281        O294   1.275       .  A
C281       C3493   1.498       .  S
O282        C295   1.277       .  A
O282       Cd289   2.092       .  S
O283        C301   1.273       .  A
O283       Cd292   2.065       .  S
O284        C298   1.275       .  A
O284       Cd288   2.078   1_565  S
O285        C296   1.276       .  A
O285       Cd288   2.083       .  S
Zn286       O297   2.040   1_545  S
Zn286       O299   2.017       .  S
Zn286       O291   1.950   1_655  S
O287        C298   1.275       .  A
O287       Cd292   2.065   1_455  S
Cd288       O290   2.063       .  S
Cd288       O291   2.005       .  S
Cd289       O293   2.105   1_655  S
Cd289       O302   2.105       .  S
Cd289       O291   2.023   1_655  S
O290        C300   1.274       .  A
O291       Cd292   2.004   1_445  S
Cd292       O294   2.084       .  S
O293        C300   1.279       .  A
C295        O299   1.274       .  A
C295       C3461   1.480       .  S
C296       C3381   1.493       .  S
C298       C3317   1.488       .  S
C300       C3349   1.481       .  S
C301        O302   1.280   1_565  A
C301       C3429   1.486       .  S
O303        C319   1.273       .  A
O303       Zn309   2.010       .  S
C304        O320   1.275       .  A
C304        O317   1.278       .  A
C304       C3202   1.473       .  S
O305        C318   1.280       .  A
O305       Cd312   2.098       .  S
O306        C324   1.281       .  A
O306       Cd315   2.105       .  S
O307        C321   1.277       .  A
O307       Cd311   2.068       .  S
O308        C319   1.274       .  A
O308       Cd311   2.083       .  S
Zn309       O320   1.998       .  S
Zn309       O322   1.964       .  S
Zn309       O314   1.880       .  S
O310        C321   1.278       .  A
O310       Cd315   2.075       .  S
Cd311       O313   2.027       .  S
Cd311       O314   1.950       .  S
Cd312       O316   2.091       .  S
Cd312       O325   2.068       .  S
Cd312       O314   1.977       .  S
O313        C323   1.271       .  A
O314       Cd315   1.973       .  S
Cd315       O317   2.078       .  S
O316        C323   1.281       .  A
C318        O322   1.270       .  A
C318       C3250   1.475       .  S
C319       C3218   1.496       .  S
C321       C3474   1.487       .  S
C323       C3266   1.481       .  S
C324        O325   1.275       .  A
C324       C3234   1.489       .  S
O326        C342   1.271       .  A
O326       Zn332   2.016   1_455  S
C327        O343   1.276       .  A
C327        O340   1.276       .  A
C327       C3138   1.495       .  S
O328        C341   1.285       .  A
O328       Cd335   2.117       .  S
O329        C347   1.281       .  A
O329       Cd338   2.108       .  S
O330        C344   1.279       .  A
O330       Cd334   2.082       .  S
O331        C342   1.277       .  A
O331       Cd334   2.096       .  S
Zn332       O343   2.002       .  S
Zn332       O345   1.963       .  S
Zn332       O337   1.893   1_655  S
O333        C344   1.277       .  A
O333       Cd338   2.066   1_455  S
Cd334       O336   2.032       .  S
Cd334       O337   1.962       .  S
Cd335       O339   2.110   1_655  S
Cd335       O348   2.086       .  S
Cd335       O337   1.983   1_655  S
O336        C346   1.274       .  A
O337       Cd338   1.979   1_455  S
Cd338       O340   2.074       .  S
O339        C346   1.283       .  A
C341        O345   1.269       .  A
C341       C3186   1.487       .  S
C342       C3173   1.495       .  S
C344       C3154   1.483       .  S
C346       C3298   1.488       .  S
C347        O348   1.277       .  A
C347       C3410   1.496       .  S
C349        C350   1.545       .  S
C349        C355   1.532       .  S
C349        C353   1.537       .  S
C349       C3125   1.542       .  S
C350        H357   1.081       .  S
C350        C351   1.364       .  D
C351        C352   1.548       .  S
C351       C3170   1.491       .  S
C352        C356   1.542       .  S
C352        C354   1.547       .  S
C352        H358   1.108       .  S
C353        H359   1.084       .  S
C353        C354   1.368       .  D
C354       C3109   1.490       .  S
C355        H360   1.087       .  S
C355        C356   1.361       .  D
C356       C4357   1.492       .  S
C361        C362   1.531       .  S
C361        C367   1.532       .  S
C361        C365   1.559       .  S
C361       C3922   1.542       .  S
C362        H369   1.085       .  S
C362        C363   1.358       .  D
C363        C364   1.548       .  S
C363       C4149   1.482       .  S
C364        C368   1.540       .  S
C364        C366   1.541       .  S
C364        H370   1.109       .  S
C365        H371   1.081       .  S
C365        C366   1.375       .  D
C366       C3090   1.495       .  S
C367        H372   1.087       .  S
C367        C368   1.360       .  D
C368       C3797   1.491       .  S
C373        C374   1.545       .  S
C373        C379   1.538       .  S
C373        C377   1.531       .  S
C373       C3541   1.531       .  S
C374        H381   1.083       .  S
C374        C375   1.371       .  D
C375        C376   1.545       .  S
C375       C3077   1.489       .  S
C376        C380   1.534       .  S
C376        C378   1.545       .  S
C376        H382   1.109       .  S
C377        H383   1.087       .  S
C377        C378   1.363       .  D
C378       C3061   1.491       .  S
C379        H384   1.087       .  S
C379        C380   1.355       .  D
C380       C3189   1.473       .  S
C385        C386   1.537       .  S
C385        C391   1.535       .  S
C385        C389   1.544       .  S
C385       C3829   1.534       .  S
C386        H393   1.086       .  S
C386        C387   1.371       .  D
C387        C388   1.542       .  S
C387       C3042   1.491       .  S
C388        C392   1.540       .  S
C388        C390   1.539       .  S
C388        H394   1.110       .  S
C389        H395   1.080       .  S
C389        C390   1.364       .  D
C390       C3765   1.482       .  S
C391        H396   1.087       .  S
C391        C392   1.352       .  D
C392       C3269   1.472       .  S
C397        C398   1.533       .  S
C397        C403   1.532       .  S
C397        C401   1.555       .  S
C397       C3026   1.541       .  S
C398        H405   1.085       .  S
C398        C399   1.364       .  D
C399        C400   1.545       .  S
C399       C3237   1.494       .  S
C400        C404   1.539       .  S
C400        C402   1.545       .  S
C400        H406   1.105       .  S
C401        H407   1.081       .  S
C401        C402   1.375       .  D
C402       C3010   1.497       .  S
C403        H408   1.087       .  S
C403        C404   1.355       .  D
C404       C2994   1.482       .  S
C409        C410   1.548       .  S
C409        C415   1.540       .  S
C409        C413   1.532       .  S
C409       C2981   1.540       .  S
C410        H417   1.082       .  S
C410        C411   1.371       .  D
C411        C412   1.540       .  S
C411       C2965   1.487       .  S
C412        C416   1.537       .  S
C412        C414   1.545       .  S
C412        H418   1.111       .  S
C413        H419   1.086       .  S
C413        C414   1.366       .  D
C414       C4325   1.493       .  S
C415        H420   1.086       .  S
C415        C416   1.358       .  D
C416       C4165   1.485       .  S
O421        C437   1.278       .  A
O421       Zn427   2.044       .  S
C422        O438   1.275       .  A
C422        O435   1.275       .  A
C422       C3074   1.491       .  S
O423        C436   1.278       .  A
O423       Cd430   2.091       .  S
O424        C442   1.274       .  A
O424       Cd433   2.066       .  S
O425        C439   1.276       .  A
O425       Cd429   2.077   1_655  S
O426        C437   1.274       .  A
O426       Cd429   2.063       .  S
Zn427       O438   2.032   1_455  S
Zn427       O440   2.016       .  S
Zn427       O432   1.953   1_455  S
O428        C439   1.275       .  A
O428       Cd433   2.068       .  S
Cd429       O431   2.070       .  S
Cd429       O432   2.000   1_455  S
Cd430       O434   2.090       .  S
Cd430       O443   2.095   1_455  S
Cd430       O432   2.016   1_455  S
O431        C441   1.275       .  A
O432       Cd433   1.999       .  S
Cd433       O435   2.076       .  S
O434        C441   1.277       .  A
C436        O440   1.274       .  A
C436       C3106   1.484       .  S
C437       C2962   1.491       .  S
C439       C3045   1.484       .  S
C441       C3093   1.486       .  S
C442        O443   1.277       .  A
C442       C3013   1.481       .  S
C444        C445   1.552       .  S
C444        C450   1.534       .  S
C444        C448   1.533       .  S
C444       C2949   1.544       .  S
C445        H452   1.078       .  S
C445        C446   1.373       .  D
C446        C447   1.547       .  S
C446       C2930   1.496       .  S
C447        C451   1.536       .  S
C447        C449   1.547       .  S
C447        H453   1.109       .  S
C448        H454   1.085       .  S
C448        C449   1.362       .  D
C449       C3842   1.489       .  S
C450        H455   1.087       .  S
C450        C451   1.361       .  D
C451       C4069   1.487       .  S
C456        C457   1.534       .  S
C456        C462   1.533       .  S
C456        C460   1.554       .  S
C456       C2914   1.539       .  S
C457        H464   1.084       .  S
C457        C458   1.364       .  D
C458        C459   1.541       .  S
C458       C4226   1.488       .  S
C459        C463   1.537       .  S
C459        C461   1.539       .  S
C459        H465   1.105       .  S
C460        H466   1.081       .  S
C460        C461   1.370       .  D
C461       C2901   1.491       .  S
C462        H467   1.087       .  S
C462        C463   1.358       .  D
C463       C3877   1.484       .  S
C468        C469   1.552       .  S
C468        C474   1.529       .  S
C468        C472   1.537       .  S
C468       C2882   1.539       .  S
C469        H476   1.078       .  S
C469        C470   1.369       .  D
C470        C471   1.542       .  S
C470       C2866   1.490       .  S
C471        C475   1.542       .  S
C471        C473   1.544       .  S
C471        H477   1.111       .  S
C472        H478   1.085       .  S
C472        C473   1.366       .  D
C473       C2834   1.494       .  S
C474        H479   1.087       .  S
C474        C475   1.355       .  D
C475       C2850   1.478       .  S
C480        C481   1.554       .  S
C480        C486   1.532       .  S
C480        C484   1.543       .  S
C480       C2821   1.547       .  S
C481        H488   1.081       .  S
C481        C482   1.375       .  D
C482        C483   1.545       .  S
C482       C2786   1.497       .  S
C483        C487   1.535       .  S
C483        C485   1.538       .  S
C483        H489   1.110       .  S
C484        H490   1.083       .  S
C484        C485   1.366       .  D
C485       C2802   1.488       .  S
C486        H491   1.087       .  S
C486        C487   1.354       .  D
C487       C2770   1.479       .  S
C492        C493   1.545       .  S
C492        C498   1.532       .  S
C492        C496   1.544       .  S
C492       C2754   1.543       .  S
C493        H500   1.082       .  S
C493        C494   1.375       .  D
C494        C495   1.546       .  S
C494       C2738   1.505       .  S
C495        C499   1.542       .  S
C495        C497   1.543       .  S
C495        H501   1.103       .  S
C496        H502   1.081       .  S
C496        C497   1.362       .  D
C497       C2722   1.489       .  S
C498        H503   1.085       .  S
C498        C499   1.356       .  D
C499       C4261   1.488       .  S
C504        C505   1.549       .  S
C504        C510   1.531       .  S
C504        C508   1.537       .  S
C504       C4117   1.537       .  S
C505        H512   1.079       .  S
C505        C506   1.370       .  D
C506        C507   1.545       .  S
C506       C4053   1.490       .  S
C507        C511   1.536       .  S
C507        C509   1.539       .  S
C507        H513   1.109       .  S
C508        H514   1.086       .  S
C508        C509   1.366       .  D
C509       C2709   1.484       .  S
C510        H515   1.087       .  S
C510        C511   1.354       .  D
C511       C2690   1.476       .  S
O516        C532   1.275       .  A
O516       Zn522   2.034       .  S
C517        O533   1.274       .  A
C517        O530   1.275       .  A
C517       C2898   1.488       .  S
O518        C531   1.278       .  A
O518       Cd525   2.097       .  S
O519        C537   1.273       .  A
O519       Cd528   2.066       .  S
O520        C534   1.274       .  A
O520       Cd524   2.070   1_554  S
O521        C532   1.274       .  A
O521       Cd524   2.073       .  S
Zn522       O533   2.029   1_556  S
Zn522       O535   2.010       .  S
Zn522       O527   1.951   1_556  S
O523        C534   1.275       .  A
O523       Cd528   2.071       .  S
Cd524       O526   2.051       .  S
Cd524       O527   1.996   1_556  S
Cd525       O529   2.095       .  S
Cd525       O538   2.110   1_556  S
Cd525       O527   2.021   1_556  S
O526        C536   1.272       .  A
O527       Cd528   1.996       .  S
Cd528       O530   2.059       .  S
O529        C536   1.278       .  A
C531        O535   1.275       .  A
C531       C2741   1.483       .  S
C532       C2805   1.488       .  S
C534       C2706   1.484       .  S
C536       C2869   1.478       .  S
C537        O538   1.281       .  A
C537       C2933   1.495       .  S
O539        C555   1.273       .  A
O539       Zn545   2.010       .  S
C540        O556   1.275       .  A
C540        O553   1.277       .  A
C540       C3122   1.492       .  S
O541        C554   1.287       .  A
O541       Cd548   2.126       .  S
O542        C560   1.281       .  A
O542       Cd551   2.099       .  S
O543        C557   1.277       .  A
O543       Cd547   2.080       .  S
O544        C555   1.274       .  A
O544       Cd547   2.081       .  S
Zn545       O556   1.988       .  S
Zn545       O558   1.974       .  S
Zn545       O550   1.884       .  S
O546        C557   1.277       .  A
O546       Cd551   2.067       .  S
Cd547       O549   2.034       .  S
Cd547       O550   1.956       .  S
Cd548       O552   2.122       .  S
Cd548       O561   2.078       .  S
Cd548       O550   1.978       .  S
O549        C559   1.275       .  A
O550       Cd551   1.977       .  S
Cd551       O553   2.077       .  S
O552        C559   1.285       .  A
C554        O558   1.269       .  A
C554       C2677   1.500       .  S
C555       C2658   1.496       .  S
C557       C2642   1.486       .  S
C559       C2853   1.498       .  S
C560        O561   1.276       .  A
C560       C2789   1.494       .  S
C562        C563   1.547       .  S
C562        C568   1.537       .  S
C562        C566   1.536       .  S
C562       C3525   1.536       .  S
C563        H570   1.080       .  S
C563        C564   1.369       .  D
C564        C565   1.540       .  S
C564       C2626   1.484       .  S
C565        C569   1.536       .  S
C565        C567   1.541       .  S
C565        H571   1.110       .  S
C566        H572   1.086       .  S
C566        C567   1.366       .  D
C567       C3858   1.488       .  S
C568        H573   1.087       .  S
C568        C569   1.355       .  D
C569       C2610   1.476       .  S
C574        C575   1.554       .  S
C574        C580   1.525       .  S
C574        C578   1.536       .  S
C574       C2594   1.538       .  S
C575        H582   1.080       .  S
C575        C576   1.384       .  D
C576        C577   1.552       .  S
C576       C2578   1.521       .  S
C577        C581   1.545       .  S
C577        C579   1.546       .  S
C577        H583   1.095       .  S
C578        H584   1.084       .  S
C578        C579   1.362       .  D
C579       C2562   1.499       .  S
C580        H585   1.088       .  S
C580        C581   1.347       .  D
C581       C3253   1.478       .  S
C586        C587   1.537       .  S
C586        C592   1.535       .  S
C586        C590   1.545       .  S
C586       C2546   1.536       .  S
C587        H594   1.087       .  S
C587        C588   1.366       .  D
C588        C589   1.544       .  S
C588       C2530   1.485       .  S
C589        C593   1.542       .  S
C589        C591   1.548       .  S
C589        H595   1.110       .  S
C590        H596   1.080       .  S
C590        C591   1.359       .  D
C591       C4341   1.486       .  S
C592        H597   1.087       .  S
C592        C593   1.361       .  D
C593       C2674   1.490       .  S
C598        C599   1.549       .  S
C598        C604   1.531       .  S
C598        C602   1.539       .  S
C598       C4098   1.544       .  S
C599        H606   1.080       .  S
C599        C600   1.369       .  D
C600        C601   1.549       .  S
C600       C2498   1.500       .  S
C601        C605   1.538       .  S
C601        C603   1.547       .  S
C601        H607   1.111       .  S
C602        H608   1.083       .  S
C602        C603   1.367       .  D
C603       C2514   1.489       .  S
C604        H609   1.087       .  S
C604        C605   1.357       .  D
C605       C4373   1.486       .  S
C610        C611   1.544       .  S
C610        C616   1.531       .  S
C610        C614   1.540       .  S
C610       C4018   1.539       .  S
C611        H618   1.082       .  S
C611        C612   1.365       .  D
C612        C613   1.546       .  S
C612       C3221   1.492       .  S
C613        C617   1.540       .  S
C613        C615   1.543       .  S
C613        H619   1.110       .  S
C614        H620   1.081       .  S
C614        C615   1.368       .  D
C615       C2482   1.485       .  S
C616        H621   1.087       .  S
C616        C617   1.356       .  D
C617       C3893   1.487       .  S
C622        C623   1.544       .  S
C622        C628   1.532       .  S
C622        C626   1.545       .  S
C622       C3909   1.540       .  S
C623        H630   1.081       .  S
C623        C624   1.363       .  D
C624        C625   1.544       .  S
C624       C2661   1.483       .  S
C625        C629   1.541       .  S
C625        C627   1.541       .  S
C625        H631   1.108       .  S
C626        H632   1.083       .  S
C626        C627   1.369       .  D
C627       C2469   1.492       .  S
C628        H633   1.088       .  S
C628        C629   1.357       .  D
C629       C2453   1.485       .  S
O634        C650   1.278       .  A
O634       Zn640   2.030       .  S
C635        O651   1.276       .  A
C635        O648   1.272       .  A
C635       C2485   1.488       .  S
O636        C649   1.276       .  A
O636       Cd643   2.090       .  S
O637        C655   1.273       .  A
O637       Cd646   2.053       .  S
O638        C652   1.275       .  A
O638       Cd642   2.069       .  S
O639        C650   1.273       .  A
O639       Cd642   2.070       .  S
Zn640       O651   2.031       .  S
Zn640       O653   2.017       .  S
Zn640       O645   1.941       .  S
O641        C652   1.275       .  A
O641       Cd646   2.082       .  S
Cd642       O644   2.043       .  S
Cd642       O645   1.993       .  S
Cd643       O647   2.083       .  S
Cd643       O656   2.093       .  S
Cd643       O645   2.020       .  S
O644        C654   1.272       .  A
O645       Cd646   1.996       .  S
Cd646       O648   2.055       .  S
O647        C654   1.276       .  A
C649        O653   1.275       .  A
C649       C2581   1.490       .  S
C650       C2466   1.494       .  S
C652       C2517   1.492       .  S
C654       C2533   1.475       .  S
C655        O656   1.278       .  A
C655       C2629   1.479       .  S
O657        C673   1.277       .  A
O657       Zn663   2.000       .  S
C658        O674   1.275       .  A
C658        O671   1.275       .  A
C658       C2725   1.497       .  S
O659        C672   1.283       .  A
O659       Cd666   2.111       .  S
O660        C678   1.271       .  A
O660       Cd669   2.028       .  S
O661        C675   1.274       .  A
O661       Cd665   2.065       .  S
O662        C673   1.274       .  A
O662       Cd665   2.055       .  S
Zn663       O674   2.024       .  S
Zn663       O676   1.987       .  S
Zn663       O668   1.890       .  S
O664        C675   1.278       .  A
O664       Cd669   2.077       .  S
Cd665       O667   2.084       .  S
Cd665       O668   1.971       .  S
Cd666       O670   2.074       .  S
Cd666       O679   2.111       .  S
Cd666       O668   1.981       .  S
O667        C677   1.278       .  A
O668       Cd669   1.957       .  S
Cd669       O671   2.080       .  S
O670        C677   1.275       .  A
C672        O676   1.272       .  A
C672       C2773   1.476       .  S
C673       C2549   1.487       .  S
C675       C2402   1.492       .  S
C677       C2418   1.487       .  S
C678        O679   1.284       .  A
C678       C2434   1.482       .  S
O680        C696   1.279       .  A
O680       Zn686   2.009   1_565  S
C681        O697   1.277       .  A
C681        O694   1.275       .  A
C681       C2341   1.498       .  S
O682        C695   1.278       .  A
O682       Cd689   2.088       .  S
O683        C701   1.275       .  A
O683       Cd692   2.052       .  S
O684        C698   1.275       .  A
O684       Cd688   2.066   1_545  S
O685        C696   1.275       .  A
O685       Cd688   2.070       .  S
Zn686       O697   2.040       .  S
Zn686       O699   1.986   1_545  S
Zn686       O691   1.899       .  S
O687        C698   1.279       .  A
O687       Cd692   2.079       .  S
Cd688       O690   2.096       .  S
Cd688       O691   1.985   1_565  S
Cd689       O693   2.060       .  S
Cd689       O702   2.081   1_565  S
Cd689       O691   1.974   1_565  S
O690        C700   1.279       .  A
O691       Cd692   1.962       .  S
Cd692       O694   2.080       .  S
O693        C700   1.274       .  A
C695        O699   1.272       .  A
C695       C2370   1.467       .  S
C696       C2322   1.492       .  S
C698       C3397   1.488       .  S
C700       C2357   1.482       .  S
C701        O702   1.279       .  A
C701       C2389   1.483       .  S
O703        C719   1.273       .  A
O703       Zn709   2.013   1_556  S
C704        O720   1.275       .  A
C704        O717   1.277       .  A
C704       C2242   1.497       .  S
O705        C718   1.283       .  A
O705       Cd712   2.114       .  S
O706        C724   1.282       .  A
O706       Cd715   2.115       .  S
O707        C721   1.278       .  A
O707       Cd711   2.085       .  S
O708        C719   1.276       .  A
O708       Cd711   2.100       .  S
Zn709       O720   1.995       .  S
Zn709       O722   1.969       .  S
Zn709       O714   1.893   1_554  S
O710        C721   1.279       .  A
O710       Cd715   2.076   1_556  S
Cd711       O713   2.041       .  S
Cd711       O714   1.972       .  S
Cd712       O716   2.113   1_554  S
Cd712       O725   2.080       .  S
Cd712       O714   1.995   1_554  S
O713        C723   1.275       .  A
O714       Cd715   1.987   1_556  S
Cd715       O717   2.085       .  S
O716        C723   1.283       .  A
C718        O722   1.272       .  A
C718       C2306   1.498       .  S
C719       C2274   1.502       .  S
C721       C2818   1.492       .  S
C723       C2290   1.495       .  S
C724        O725   1.276       .  A
C724       C2258   1.498       .  S
C726        C727   1.550       .  S
C726        C732   1.531       .  S
C726        C730   1.539       .  S
C726       C2226   1.541       .  S
C727        H734   1.081       .  S
C727        C728   1.369       .  D
C728        C729   1.537       .  S
C728       C2210   1.483       .  S
C729        C733   1.535       .  S
C729        C731   1.545       .  S
C729        H735   1.110       .  S
C730        H736   1.083       .  S
C730        C731   1.369       .  D
C731       C2421   1.494       .  S
C732        H737   1.087       .  S
C732        C733   1.355       .  D
C733       C2293   1.476       .  S
C738        C739   1.552       .  S
C738        C744   1.527       .  S
C738        C742   1.539       .  S
C738       C4213   1.545       .  S
C739        H746   1.081       .  S
C739        C740   1.369       .  D
C740        C741   1.547       .  S
C740       C2178   1.495       .  S
C741        C745   1.538       .  S
C741        C743   1.544       .  S
C741        H747   1.108       .  S
C742        H748   1.083       .  S
C742        C743   1.370       .  D
C743       C2194   1.488       .  S
C744        H749   1.088       .  S
C744        C745   1.354       .  D
C745       C2437   1.480       .  S
C750        C751   1.552       .  S
C750        C756   1.530       .  S
C750        C754   1.540       .  S
C750       C2162   1.547       .  S
C751        H758   1.081       .  S
C751        C752   1.373       .  D
C752        C753   1.550       .  S
C752       C2261   1.505       .  S
C753        C757   1.537       .  S
C753        C755   1.546       .  S
C753        H759   1.107       .  S
C754        H760   1.082       .  S
C754        C755   1.370       .  D
C755       C2146   1.499       .  S
C756        H761   1.088       .  S
C756        C757   1.354       .  D
C757       C2373   1.479       .  S
C762        C763   1.558       .  S
C762        C768   1.532       .  S
C762        C766   1.532       .  S
C762       C2133   1.540       .  S
C763        H770   1.081       .  S
C763        C764   1.367       .  D
C764        C765   1.532       .  S
C764       C2117   1.481       .  S
C765        C769   1.544       .  S
C765        C767   1.547       .  S
C765        H771   1.111       .  S
C766        H772   1.085       .  S
C766        C767   1.363       .  D
C767       C2338   1.487       .  S
C768        H773   1.086       .  S
C768        C769   1.360       .  D
C769       C4082   1.491       .  S
C774        C775   1.536       .  S
C774        C780   1.532       .  S
C774        C778   1.549       .  S
C774       C2098   1.539       .  S
C775        H782   1.084       .  S
C775        C776   1.364       .  D
C776        C777   1.540       .  S
C776       C2082   1.483       .  S
C777        C781   1.538       .  S
C777        C779   1.544       .  S
C777        H783   1.107       .  S
C778        H784   1.081       .  S
C778        C779   1.369       .  D
C779       C2066   1.488       .  S
C780        H785   1.087       .  S
C780        C781   1.358       .  D
C781       C2050   1.485       .  S
C786        C787   1.530       .  S
C786        C792   1.530       .  S
C786        C790   1.558       .  S
C786       C3637   1.541       .  S
C787        H794   1.086       .  S
C787        C788   1.359       .  D
C788        C789   1.546       .  S
C788       C4037   1.486       .  S
C789        C793   1.540       .  S
C789        C791   1.544       .  S
C789        H795   1.109       .  S
C790        H796   1.082       .  S
C790        C791   1.378       .  D
C791       C2034   1.496       .  S
C792        H797   1.087       .  S
C792        C793   1.357       .  D
C793       C2021   1.484       .  S
O798        C814   1.276       .  A
O798       Zn804   2.034   1_565  S
C799        O815   1.275       .  A
C799        O812   1.275       .  A
C799       C2085   1.485       .  S
O800        C813   1.276       .  A
O800       Cd807   2.082   1_556  S
O801        C819   1.274       .  A
O801       Cd810   2.065       .  S
O802        C816   1.273       .  A
O802       Cd806   2.068   1_545  S
O803        C814   1.272       .  A
O803       Cd806   2.061   1_556  S
Zn804       O815   2.028       .  S
Zn804       O817   2.020   1_545  S
Zn804       O809   1.952       .  S
O805        C816   1.276       .  A
O805       Cd810   2.071       .  S
Cd806       O808   2.057       .  S
Cd806       O809   2.000   1_564  S
Cd807       O811   2.092       .  S
Cd807       O820   2.100   1_565  S
Cd807       O809   2.009   1_564  S
O808        C818   1.272       .  A
O809       Cd810   1.997   1_556  S
Cd810       O812   2.071   1_554  S
O811        C818   1.279       .  A
C813        O817   1.274       .  A
C813       C2197   1.485       .  S
C814       C2213   1.486       .  S
C816       C2114   1.493       .  S
C818       C2149   1.490       .  S
C819        O820   1.278       .  A
C819       C2037   1.488       .  S
O821        C837   1.278       .  A
O821       Zn827   2.017       .  S
C822        O838   1.275       .  A
C822        O835   1.275       .  A
C822       C1954   1.497       .  S
O823        C836   1.281       .  A
O823       Cd830   2.096       .  S
O824        C842   1.273       .  A
O824       Cd833   2.023       .  S
O825        C839   1.279       .  A
O825       Cd829   2.084   1_455  S
O826        C837   1.279       .  A
O826       Cd829   2.079       .  S
Zn827       O838   2.040   1_655  S
Zn827       O840   1.981       .  S
Zn827       O832   1.896       .  S
O828        C839   1.277       .  A
O828       Cd833   2.067       .  S
Cd829       O831   2.120       .  S
Cd829       O832   1.987       .  S
Cd830       O834   2.071       .  S
Cd830       O843   2.097   1_655  S
Cd830       O832   1.983       .  S
O831        C841   1.283       .  A
O832       Cd833   1.955   1_655  S
Cd833       O835   2.080       .  S
O834        C841   1.274       .  A
C836        O840   1.273       .  A
C836       C1986   1.476       .  S
C837       C3509   1.478       .  S
C839       C2978   1.485       .  S
C841       C1970   1.496       .  S
C842        O843   1.280       .  A
C842       C2002   1.484       .  S
O844        C860   1.278       .  A
O844       Zn850   2.021       .  S
C845        O861   1.272       .  A
C845        O858   1.278       .  A
C845       C1922   1.500       .  S
O846        C859   1.281       .  A
O846       Cd853   2.107       .  S
O847        C865   1.273       .  A
O847       Cd856   2.053       .  S
O848        C862   1.274       .  A
O848       Cd852   2.062   1_554  S
O849        C860   1.275       .  A
O849       Cd852   2.075       .  S
Zn850       O861   2.005   1_556  S
Zn850       O863   1.988       .  S
Zn850       O855   1.895       .  S
O851        C862   1.281       .  A
O851       Cd856   2.087       .  S
Cd852       O854   2.086       .  S
Cd852       O855   1.977       .  S
Cd853       O857   2.060       .  S
Cd853       O866   2.110   1_556  S
Cd853       O855   1.987       .  S
O854        C864   1.278       .  A
O855       Cd856   1.965   1_556  S
Cd856       O858   2.089       .  S
O857        C864   1.274       .  A
C859        O863   1.272       .  A
C859       C1938   1.471       .  S
C860       C1909   1.499       .  S
C862       C2946   1.495       .  S
C864       C2069   1.480       .  S
C865        O866   1.283       .  A
C865       C2018   1.496       .  S
O867        C883   1.276       .  A
O867       Zn873   2.003       .  S
C868        O884   1.273       .  A
C868        O881   1.276       .  A
C868       C3285   1.486       .  S
O869        C882   1.280       .  A
O869       Cd876   2.096       .  S
O870        C888   1.276       .  A
O870       Cd879   2.057       .  S
O871        C885   1.277       .  A
O871       Cd875   2.076   1_565  S
O872        C883   1.276       .  A
O872       Cd875   2.077       .  S
Zn873       O884   2.008   1_545  S
Zn873       O886   1.975       .  S
Zn873       O878   1.893       .  S
O874        C885   1.279       .  A
O874       Cd879   2.070       .  S
Cd875       O877   2.096       .  S
Cd875       O878   1.982       .  S
Cd876       O880   2.057       .  S
Cd876       O889   2.099   1_545  S
Cd876       O878   1.979       .  S
O877        C887   1.280       .  A
O878       Cd879   1.957   1_545  S
Cd879       O881   2.084       .  S
O880        C887   1.273       .  A
C882        O886   1.272       .  A
C882       C3330   1.492       .  S
C883       C1858   1.496       .  S
C885       C2229   1.492       .  S
C887       C1874   1.477       .  S
C888        O889   1.281       .  A
C888       C1890   1.491       .  S
C890        C891   1.553       .  S
C890        C896   1.531       .  S
C890        C894   1.538       .  S
C890       C1842   1.542       .  S
C891        H898   1.077       .  S
C891        C892   1.370       .  D
C892        C893   1.541       .  S
C892       C1826   1.490       .  S
C893        C897   1.536       .  S
C893        C895   1.540       .  S
C893        H899   1.109       .  S
C894        H900   1.084       .  S
C894        C895   1.366       .  D
C895       C1877   1.487       .  S
C896        H901   1.087       .  S
C896        C897   1.356       .  D
C897       C1810   1.479       .  S
C902        C903   1.540       .  S
C902        C908   1.533       .  S
C902        C906   1.547       .  S
C902       C2325   1.542       .  S
C903        H910   1.084       .  S
C903        C904   1.364       .  D
C904        C905   1.539       .  S
C904       C1794   1.482       .  S
C905        C909   1.541       .  S
C905        C907   1.547       .  S
C905        H911   1.108       .  S
C906        H912   1.081       .  S
C906        C907   1.369       .  D
C907       C1957   1.495       .  S
C908        H913   1.087       .  S
C908        C909   1.359       .  D
C909       C2309   1.489       .  S
C914        C915   1.558       .  S
C914        C920   1.529       .  S
C914        C918   1.529       .  S
C914       C3733   1.537       .  S
C915        H922   1.080       .  S
C915        C916   1.369       .  D
C916        C917   1.536       .  S
C916       C1781   1.489       .  S
C917        C921   1.541       .  S
C917        C919   1.546       .  S
C917        H923   1.111       .  S
C918        H924   1.084       .  S
C918        C919   1.361       .  D
C919       C1925   1.480       .  S
C920        H925   1.087       .  S
C920        C921   1.357       .  D
C921       C3701   1.484       .  S
C926        C927   1.537       .  S
C926        C932   1.527       .  S
C926        C930   1.555       .  S
C926       C4197   1.536       .  S
C927        H934   1.084       .  S
C927        C928   1.365       .  D
C928        C929   1.543       .  S
C928       C3669   1.490       .  S
C929        C933   1.539       .  S
C929        C931   1.541       .  S
C929        H935   1.111       .  S
C930        H936   1.078       .  S
C930        C931   1.371       .  D
C931       C1762   1.493       .  S
C932        H937   1.087       .  S
C932        C933   1.352       .  D
C933       C1989   1.472       .  S
C938        C939   1.549       .  S
C938        C944   1.530       .  S
C938        C942   1.542       .  S
C938       C3157   1.542       .  S
C939        H946   1.080       .  S
C939        C940   1.366       .  D
C940        C941   1.544       .  S
C940       C2277   1.490       .  S
C941        C945   1.542       .  S
C941        C943   1.545       .  S
C941        H947   1.110       .  S
C942        H948   1.086       .  S
C942        C943   1.370       .  D
C943       C1746   1.494       .  S
C944        H949   1.087       .  S
C944        C945   1.357       .  D
C945       C1893   1.490       .  S
C950        C951   1.539       .  S
C950        C956   1.530       .  S
C950        C954   1.551       .  S
C950       C1730   1.546       .  S
C951        H958   1.082       .  S
C951        C952   1.371       .  D
C952        C953   1.550       .  S
C952       C1698   1.500       .  S
C953        C957   1.538       .  S
C953        C955   1.542       .  S
C953        H959   1.106       .  S
C954        H960   1.082       .  S
C954        C955   1.369       .  D
C955       C1717   1.492       .  S
C956        H961   1.087       .  S
C956        C957   1.357       .  D
C957       C1941   1.483       .  S
O962        C978   1.274       .  A
O962       Zn968   2.027   1_554  S
C963        O979   1.273       .  A
C963        O976   1.275       .  A
C963       C1829   1.487       .  S
O964        C977   1.279       .  A
O964       Cd971   2.100   1_545  S
O965        C983   1.272       .  A
O965       Cd974   2.054       .  S
O966        C980   1.274       .  A
O966       Cd970   2.076   1_465  S
O967        C978   1.276       .  A
O967       Cd970   2.074       .  S
Zn968       O979   2.021   1_655  S
Zn968       O981   2.007       .  S
Zn968       O973   1.949       .  S
O969        C980   1.276       .  A
O969       Cd974   2.073   1_554  S
Cd970       O972   2.062   1_545  S
Cd970       O973   1.999   1_554  S
Cd971       O975   2.100   1_556  S
Cd971       O984   2.106       .  S
Cd971       O973   2.022   1_565  S
O972        C982   1.273       .  A
O973       Cd974   1.999   1_645  S
Cd974       O976   2.073   1_565  S
O975        C982   1.278       .  A
C977        O981   1.273       .  A
C977       C1714   1.486       .  S
C978       C1778   1.486       .  S
C980       C1797   1.492       .  S
C982       C1765   1.483       .  S
C983        O984   1.280   1_455  A
C983       C1749   1.484       .  S
O985       C1001   1.276       .  A
O985       Zn991   2.011       .  S
C986       O1002   1.274       .  A
C986        O999   1.274       .  A
C986       C1669   1.495       .  S
O987       C1000   1.286       .  A
O987       Cd994   2.115       .  S
O988       C1006   1.269       .  A
O988       Cd997   2.030       .  S
O989       C1003   1.276       .  A
O989       Cd993   2.068   1_554  S
O990       C1001   1.277       .  A
O990       Cd993   2.078       .  S
Zn991      O1002   2.022   1_556  S
Zn991      O1004   1.969       .  S
Zn991       O996   1.890   1_556  S
O992       C1003   1.277       .  A
O992       Cd997   2.062       .  S
Cd993       O995   2.106       .  S
Cd993       O996   1.979   1_556  S
Cd994       O998   2.064       .  S
Cd994      O1007   2.119   1_556  S
Cd994       O996   1.981   1_556  S
O995       C1005   1.280       .  A
O996       Cd997   1.957       .  S
Cd997       O999   2.081       .  S
O998       C1005   1.273       .  A
C1000      O1004   1.269       .  A
C1000      C1685   1.497       .  S
C1001      C1845   1.473       .  S
C1003      C2130   1.486       .  S
C1005      C2837   1.489       .  S
C1006      O1007   1.286       .  A
C1006      C2693   1.499       .  S
O1008      C1024   1.275       .  A
O1008     Zn1014   2.017       .  S
C1009      O1025   1.274       .  A
C1009      O1022   1.276       .  A
C1009      C3058   1.500       .  S
O1010      C1023   1.283       .  A
O1010     Cd1017   2.105       .  S
O1011      C1029   1.271       .  A
O1011     Cd1020   2.037       .  S
O1012      C1026   1.278       .  A
O1012     Cd1016   2.065       .  S
O1013      C1024   1.276       .  A
O1013     Cd1016   2.061       .  S
Zn1014     O1025   2.007       .  S
Zn1014     O1027   1.986       .  S
Zn1014     O1019   1.887       .  S
O1015      C1026   1.278       .  A
O1015     Cd1020   2.073       .  S
Cd1016     O1018   2.092       .  S
Cd1016     O1019   1.970       .  S
Cd1017     O1021   2.070       .  S
Cd1017     O1030   2.114       .  S
Cd1017     O1019   1.976       .  S
O1018      C1028   1.278       .  A
O1019     Cd1020   1.955       .  S
Cd1020     O1022   2.092       .  S
O1021      C1028   1.275       .  A
C1023      O1027   1.275       .  A
C1023      C2997   1.494       .  S
C1024      C2597   1.475       .  S
C1026      C2757   1.484       .  S
C1028      C1634   1.480       .  S
C1029      O1030   1.284       .  A
C1029      C1650   1.491       .  S
O1031      C1047   1.272       .  A
O1031     Zn1037   2.019   1_655  S
C1032      O1048   1.275       .  A
C1032      O1045   1.278       .  A
C1032      C3365   1.473       .  S
O1033      C1046   1.284       .  A
O1033     Cd1040   2.113       .  S
O1034      C1052   1.282       .  A
O1034     Cd1043   2.114       .  S
O1035      C1049   1.280       .  A
O1035     Cd1039   2.080       .  S
O1036      C1047   1.276       .  A
O1036     Cd1039   2.090       .  S
Zn1037     O1048   2.003       .  S
Zn1037     O1050   1.984       .  S
Zn1037     O1042   1.898       .  S
O1038      C1049   1.276       .  A
O1038     Cd1043   2.075   1_655  S
Cd1039     O1041   2.034       .  S
Cd1039     O1042   1.962   1_655  S
Cd1040     O1044   2.115   1_455  S
Cd1040     O1053   2.077       .  S
Cd1040     O1042   1.982       .  S
O1041      C1051   1.271       .  A
O1042     Cd1043   1.983       .  S
Cd1043     O1045   2.076       .  S
O1044      C1051   1.285       .  A
C1046      O1050   1.274       .  A
C1046      C1813   1.495       .  S
C1047      C1701   1.489       .  S
C1049      C3029   1.494       .  S
C1051      C1618   1.494       .  S
C1052      O1053   1.275       .  A
C1052      C1602   1.491       .  S
C1054      C1055   1.544       .  S
C1054      C1060   1.532       .  S
C1054      C1058   1.554       .  S
C1054      C1906   1.545       .  S
C1055      H1062   1.086       .  S
C1055      C1056   1.371       .  D
C1056      C1057   1.543       .  S
C1056      C1586   1.493       .  S
C1057      C1061   1.534       .  S
C1057      C1059   1.538       .  S
C1057      H1063   1.110       .  S
C1058      H1064   1.080       .  S
C1058      C1059   1.368       .  D
C1059      C1637   1.492       .  S
C1060      H1065   1.087       .  S
C1060      C1061   1.356       .  D
C1061      C1621   1.477       .  S
C1066      C1067   1.546       .  S
C1066      C1072   1.530       .  S
C1066      C1070   1.548       .  S
C1066      C2645   1.546       .  S
C1067      H1074   1.081       .  S
C1067      C1068   1.367       .  D
C1068      C1069   1.550       .  S
C1068      C1605   1.498       .  S
C1069      C1073   1.549       .  S
C1069      C1071   1.542       .  S
C1069      H1075   1.108       .  S
C1070      H1076   1.086       .  S
C1070      C1071   1.372       .  D
C1071      C1570   1.502       .  S
C1072      H1077   1.082       .  S
C1072      C1073   1.356       .  D
C1073      C1682   1.495       .  S
C1078      C1079   1.548       .  S
C1078      C1084   1.530       .  S
C1078      C1082   1.539       .  S
C1078      C3141   1.540       .  S
C1079      H1086   1.081       .  S
C1079      C1080   1.367       .  D
C1080      C1081   1.545       .  S
C1080      C4245   1.486       .  S
C1081      C1085   1.538       .  S
C1081      C1083   1.544       .  S
C1081      H1087   1.111       .  S
C1082      H1088   1.084       .  S
C1082      C1083   1.368       .  D
C1083      C1557   1.491       .  S
C1084      H1089   1.088       .  S
C1084      C1085   1.354       .  D
C1085      C1653   1.478       .  S
C1090      C1091   1.539       .  S
C1090      C1096   1.534       .  S
C1090      C1094   1.548       .  S
C1090      C3717   1.539       .  S
C1091      H1098   1.084       .  S
C1091      C1092   1.367       .  D
C1092      C1093   1.542       .  S
C1092      C1538   1.486       .  S
C1093      C1097   1.535       .  S
C1093      C1095   1.543       .  S
C1093      H1099   1.109       .  S
C1094      H1100   1.080       .  S
C1094      C1095   1.365       .  D
C1095      C1666   1.490       .  S
C1096      H1101   1.087       .  S
C1096      C1097   1.356       .  D
C1097      C4178   1.480       .  S
C1102      C1103   1.553       .  S
C1102      C1108   1.534       .  S
C1102      C1106   1.536       .  S
C1102      C3813   1.543       .  S
C1103      H1110   1.076       .  S
C1103      C1104   1.372       .  D
C1104      C1105   1.546       .  S
C1104      C1522   1.496       .  S
C1105      C1109   1.538       .  S
C1105      C1107   1.547       .  S
C1105      H1111   1.111       .  S
C1106      H1112   1.084       .  S
C1106      C1107   1.365       .  D
C1107      C1973   1.496       .  S
C1108      H1113   1.087       .  S
C1108      C1109   1.355       .  D
C1109      C4277   1.481       .  S
C1114      C1115   1.546       .  S
C1114      C1120   1.532       .  S
C1114      C1118   1.546       .  S
C1114      C2245   1.544       .  S
C1115      H1122   1.081       .  S
C1115      C1116   1.363       .  D
C1116      C1117   1.552       .  S
C1116      C4130   1.494       .  S
C1117      C1121   1.539       .  S
C1117      C1119   1.546       .  S
C1117      H1123   1.110       .  S
C1118      H1124   1.083       .  S
C1118      C1119   1.373       .  D
C1119      C1509   1.502       .  S
C1120      H1125   1.087       .  S
C1120      C1121   1.355       .  D
C1121      C2005   1.481       .  S
O1126      C1142   1.278       .  A
O1126     Zn1132   2.048   1_455  S
C1127      O1143   1.278       .  A
C1127      O1140   1.273       .  A
C1127      C1554   1.486       .  S
O1128      C1141   1.279       .  A
O1128     Cd1135   2.095       .  S
O1129      C1147   1.272       .  A
O1129     Cd1138   2.052       .  S
O1130      C1144   1.279       .  A
O1130     Cd1134   2.096   1_556  S
O1131      C1142   1.275       .  A
O1131     Cd1134   2.074       .  S
Zn1132     O1143   2.045   1_554  S
Zn1132     O1145   2.023       .  S
Zn1132     O1137   1.956   1_554  S
O1133      C1144   1.273       .  A
O1133     Cd1138   2.076   1_455  S
Cd1134     O1136   2.057       .  S
Cd1134     O1137   2.000   1_454  S
Cd1135     O1139   2.096       .  S
Cd1135     O1148   2.107   1_554  S
Cd1135     O1137   2.025   1_554  S
O1136      C1146   1.273       .  A
O1137     Cd1138   1.998       .  S
Cd1138     O1140   2.061       .  S
O1139      C1146   1.278   1_655  A
C1141      O1145   1.274       .  A
C1141      C1525   1.492       .  S
C1142      C1506   1.488       .  S
C1144      C1573   1.500       .  S
C1146      C1541   1.479       .  S
C1147      O1148   1.279       .  A
C1147      C1589   1.484       .  S
O1149      C1165   1.271       .  A
O1149     Zn1155   2.007       .  S
C1150      O1166   1.277       .  A
C1150      O1163   1.276       .  A
C1150      C2165   1.498       .  S
O1151      C1164   1.282       .  A
O1151     Cd1158   2.105       .  S
O1152      C1170   1.280       .  A
O1152     Cd1161   2.103       .  S
O1153      C1167   1.281       .  A
O1153     Cd1157   2.081       .  S
O1154      C1165   1.278       .  A
O1154     Cd1157   2.098       .  S
Zn1155     O1166   2.013       .  S
Zn1155     O1168   1.955       .  S
Zn1155     O1160   1.886       .  S
O1156      C1167   1.275       .  A
O1156     Cd1161   2.060       .  S
Cd1157     O1159   2.049       .  S
Cd1157     O1160   1.959       .  S
Cd1158     O1162   2.108       .  S
Cd1158     O1171   2.060       .  S
Cd1158     O1160   1.985       .  S
O1159      C1169   1.273       .  A
O1160     Cd1161   1.981       .  S
Cd1161     O1163   2.078       .  S
O1162      C1169   1.284       .  A
C1164      O1168   1.269       .  A
C1164      C1490   1.478       .  S
C1165      C1474   1.496       .  S
C1167      C2917   1.491       .  S
C1169      C2613   1.500       .  S
C1170      O1171   1.273       .  A
C1170      C2501   1.489       .  S
O1172      C1188   1.276       .  A
O1172     Zn1178   2.001       .  S
C1173      O1189   1.272       .  A
C1173      O1186   1.276       .  A
C1173      C1445   1.489       .  S
O1174      C1187   1.282       .  A
O1174     Cd1181   2.106       .  S
O1175      C1193   1.274       .  A
O1175     Cd1184   2.044       .  S
O1176      C1190   1.273       .  A
O1176     Cd1180   2.057       .  S
O1177      C1188   1.275       .  A
O1177     Cd1180   2.076       .  S
Zn1178     O1189   2.017       .  S
Zn1178     O1191   1.975       .  S
Zn1178     O1183   1.898       .  S
O1179      C1190   1.279       .  A
O1179     Cd1184   2.077       .  S
Cd1180     O1182   2.087       .  S
Cd1180     O1183   1.984       .  S
Cd1181     O1185   2.066       .  S
Cd1181     O1194   2.098       .  S
Cd1181     O1183   1.984       .  S
O1182      C1192   1.277       .  A
O1183     Cd1184   1.965       .  S
Cd1184     O1186   2.080       .  S
O1185      C1192   1.276       .  A
C1187      O1191   1.269       .  A
C1187      C1458   1.496       .  S
C1188      C2101   1.494       .  S
C1190      C2885   1.489       .  S
C1192      C2565   1.481       .  S
C1193      O1194   1.281       .  A
C1193      C2450   1.485       .  S
O1195      C1211   1.274       .  A
O1195     Zn1201   2.026   1_565  S
C1196      O1212   1.277       .  A
C1196      O1209   1.278       .  A
C1196      C1733   1.481       .  S
O1197      C1210   1.280       .  A
O1197     Cd1204   2.096       .  S
O1198      C1216   1.280       .  A
O1198     Cd1207   2.102       .  S
O1199      C1213   1.281       .  A
O1199     Cd1203   2.101       .  S
O1200      C1211   1.279       .  A
O1200     Cd1203   2.102       .  S
Zn1201     O1212   2.018       .  S
Zn1201     O1214   1.997       .  S
Zn1201     O1206   1.904       .  S
O1202      C1213   1.278       .  A
O1202     Cd1207   2.069   1_565  S
Cd1203     O1205   2.061       .  S
Cd1203     O1206   1.973   1_565  S
Cd1204     O1208   2.097   1_545  S
Cd1204     O1217   2.068       .  S
Cd1204     O1206   1.985       .  S
O1205      C1215   1.277       .  A
O1206     Cd1207   1.982       .  S
Cd1207     O1209   2.079       .  S
O1208      C1215   1.281       .  A
C1210      O1214   1.273       .  A
C1210      C2053   1.470       .  S
C1211      C2181   1.500       .  S
C1213      C3445   1.495       .  S
C1215      C1429   1.489       .  S
C1216      O1217   1.274       .  A
C1216      C1410   1.483       .  S
C1218      C1219   1.537       .  S
C1218      C1224   1.528       .  S
C1218      C1222   1.550       .  S
C1218      C1861   1.542       .  S
C1219      H1226   1.084       .  S
C1219      C1220   1.367       .  D
C1220      C1221   1.548       .  S
C1220      C1394   1.493       .  S
C1221      C1225   1.544       .  S
C1221      C1223   1.547       .  S
C1221      H1227   1.110       .  S
C1222      H1228   1.080       .  S
C1222      C1223   1.368       .  D
C1223      C1442   1.494       .  S
C1224      H1229   1.088       .  S
C1224      C1225   1.356       .  D
C1225      C3973   1.484       .  S
C1230      C1231   1.553       .  S
C1230      C1236   1.533       .  S
C1230      C1234   1.529       .  S
C1230      C2405   1.542       .  S
C1231      H1238   1.079       .  S
C1231      C1232   1.370       .  D
C1232      C1233   1.542       .  S
C1232      C1378   1.493       .  S
C1233      C1237   1.545       .  S
C1233      C1235   1.552       .  S
C1233      H1239   1.108       .  S
C1234      H1240   1.085       .  S
C1234      C1235   1.359       .  D
C1235      C3557   1.486       .  S
C1236      H1241   1.087       .  S
C1236      C1237   1.362       .  D
C1237      C1426   1.494       .  S
C1242      C1243   1.533       .  S
C1242      C1248   1.532       .  S
C1242      C1246   1.558       .  S
C1242      C3205   1.542       .  S
C1243      H1250   1.084       .  S
C1243      C1244   1.362       .  D
C1244      C1245   1.550       .  S
C1244      C1413   1.489       .  S
C1245      C1249   1.541       .  S
C1245      C1247   1.537       .  S
C1245      H1251   1.107       .  S
C1246      H1252   1.081       .  S
C1246      C1247   1.372       .  D
C1247      C1365   1.491       .  S
C1248      H1253   1.086       .  S
C1248      C1249   1.360       .  D
C1249      C1461   1.494       .  S
C1254      C1255   1.546       .  S
C1254      C1260   1.526       .  S
C1254      C1258   1.543       .  S
C1254      C4290   1.542       .  S
C1255      H1262   1.081       .  S
C1255      C1256   1.379       .  D
C1256      C1257   1.547       .  S
C1256      C1346   1.511       .  S
C1257      C1261   1.548       .  S
C1257      C1259   1.552       .  S
C1257      H1263   1.099       .  S
C1258      H1264   1.082       .  S
C1258      C1259   1.365       .  D
C1259      C2354   1.502       .  S
C1260      H1265   1.087       .  S
C1260      C1261   1.349       .  D
C1261      C1493   1.480       .  S
C1266      C1267   1.544       .  S
C1266      C1272   1.533       .  S
C1266      C1270   1.538       .  S
C1266      C3621   1.538       .  S
C1267      H1274   1.080       .  S
C1267      C1268   1.366       .  D
C1268      C1269   1.550       .  S
C1268      C1477   1.495       .  S
C1269      C1273   1.541       .  S
C1269      C1271   1.547       .  S
C1269      H1275   1.107       .  S
C1270      H1276   1.085       .  S
C1270      C1271   1.367       .  D
C1271      C1330   1.496       .  S
C1272      H1277   1.087       .  S
C1272      C1273   1.359       .  D
C1273      C3602   1.488       .  S
C1278      C1279   1.547       .  S
C1278      C1284   1.530       .  S
C1278      C1282   1.537       .  S
C1278      C4005   1.534       .  S
C1279      H1286   1.081       .  S
C1279      C1280   1.367       .  D
C1280      C1281   1.544       .  S
C1280      C3941   1.489       .  S
C1281      C1285   1.541       .  S
C1281      C1283   1.545       .  S
C1281      H1287   1.106       .  S
C1282      H1288   1.086       .  S
C1282      C1283   1.366       .  D
C1283      C1314   1.491       .  S
C1284      H1289   1.087       .  S
C1284      C1285   1.355       .  D
C1285      C2386   1.483       .  S
O1290      C1306   1.276       .  A
O1290     Zn1296   2.032       .  S
C1291      O1307   1.277       .  A
C1291      O1304   1.272       .  A
C1291      C1349   1.492       .  S
O1292      C1305   1.278   1_545  A
O1292     Cd1299   2.096       .  S
O1293      C1311   1.272       .  A
O1293     Cd1302   2.048       .  S
O1294      C1308   1.279       .  A
O1294     Cd1298   2.096       .  S
O1295      C1306   1.277       .  A
O1295     Cd1298   2.077   1_565  S
Zn1296     O1307   2.040       .  S
Zn1296     O1309   2.006       .  S
Zn1296     O1301   1.951   1_565  S
O1297      C1308   1.274       .  A
O1297     Cd1302   2.069       .  S
Cd1298     O1300   2.080       .  S
Cd1298     O1301   2.005       .  S
Cd1299     O1303   2.085       .  S
Cd1299     O1312   2.088       .  S
Cd1299     O1301   2.019       .  S
O1300      C1310   1.276       .  A
O1301     Cd1302   1.995       .  S
Cd1302     O1304   2.068   1_545  S
O1303      C1310   1.276       .  A
C1305      O1309   1.272       .  A
C1305      C1333   1.486       .  S
C1306      C1381   1.487       .  S
C1308      C1397   1.491       .  S
C1310      C1362   1.488       .  S
C1311      O1312   1.276       .  A
C1311      C1317   1.473       .  S
C1313      C1314   1.408       .  A
C1313      C1318   1.408       .  A
C1313      H1320   1.084       .  S
C1314      C1315   1.417       .  A
C1315      C1322   1.504       .  S
C1315      C1316   1.399       .  A
C1316      C1317   1.398       .  A
C1316      H1321   1.085       .  S
C1317      C1318   1.410       .  A
C1318      C1319   1.506       .  S
C1319      H1323   1.111       .  S
C1319      H1324   1.110       .  S
C1319      H1325   1.110       .  S
C1322      H1326   1.107       .  S
C1322      H1327   1.105       .  S
C1322      H1328   1.111       .  S
C1329      C1330   1.401       .  A
C1329      C1334   1.406       .  A
C1329      H1336   1.078       .  S
C1330      C1331   1.420       .  A
C1331      C1338   1.505       .  S
C1331      C1332   1.407       .  A
C1332      C1333   1.401       .  A
C1332      H1337   1.084       .  S
C1333      C1334   1.418       .  A
C1334      C1335   1.509       .  S
C1335      H1339   1.111       .  S
C1335      H1340   1.110       .  S
C1335      H1341   1.109       .  S
C1338      H1342   1.107       .  S
C1338      H1343   1.110       .  S
C1338      H1344   1.111       .  S
C1345      C1346   1.409       .  A
C1345      C1350   1.407       .  A
C1345      H1352   1.083       .  S
C1346      C1347   1.426       .  A
C1347      C1354   1.506       .  S
C1347      C1348   1.408       .  A
C1348      C1349   1.402       .  A
C1348      H1353   1.084       .  S
C1349      C1350   1.415       .  A
C1350      C1351   1.508       .  S
C1351      H1355   1.111       .  S
C1351      H1356   1.110       .  S
C1351      H1357   1.110       .  S
C1354      H1358   1.107       .  S
C1354      H1359   1.098       .  S
C1354      H1360   1.111       .  S
C1361      C1362   1.404       .  A
C1361      C1366   1.406       .  A
C1361      H1368   1.084       .  S
C1362      C1363   1.417       .  A
C1363      C1370   1.508       .  S
C1363      C1364   1.407       .  A
C1364      C1365   1.405       .  A
C1364      H1369   1.084       .  S
C1365      C1366   1.415       .  A
C1366      C1367   1.508       .  S
C1367      H1371   1.111       .  S
C1367      H1372   1.106       .  S
C1367      H1373   1.109       .  S
C1370      H1374   1.110       .  S
C1370      H1375   1.110       .  S
C1370      H1376   1.111       .  S
C1377      C1378   1.402       .  A
C1377      C1382   1.405       .  A
C1377      H1384   1.078       .  S
C1378      C1379   1.417       .  A
C1379      C1386   1.508       .  S
C1379      C1380   1.406       .  A
C1380      C1381   1.404       .  A
C1380      H1385   1.084       .  S
C1381      C1382   1.417       .  A
C1382      C1383   1.508       .  S
C1383      H1387   1.111       .  S
C1383      H1388   1.110       .  S
C1383      H1389   1.110       .  S
C1386      H1390   1.109       .  S
C1386      H1391   1.107       .  S
C1386      H1392   1.111       .  S
C1393      C1394   1.404       .  A
C1393      C1398   1.407       .  A
C1393      H1400   1.089       .  S
C1394      C1395   1.417       .  A
C1395      C1402   1.504       .  S
C1395      C1396   1.406       .  A
C1396      C1397   1.405       .  A
C1396      H1401   1.089       .  S
C1397      C1398   1.419       .  A
C1398      C1399   1.508       .  S
C1399      H1403   1.111       .  S
C1399      H1404   1.110   1_545  S
C1399      H1405   1.109       .  S
C1402      H1406   1.111       .  S
C1402      H1407   1.100       .  S
C1402      H1408   1.110       .  S
C1409      C1410   1.403       .  A
C1409      C1414   1.405       .  A
C1409      H1416   1.084       .  S
C1410      C1411   1.413       .  A
C1411      C1418   1.506       .  S
C1411      C1412   1.408       .  A
C1412      C1413   1.406       .  A
C1412      H1417   1.084       .  S
C1413      C1414   1.414       .  A
C1414      C1415   1.504       .  S
C1415      H1419   1.110       .  S
C1415      H1420   1.110       .  S
C1415      H1421   1.106       .  S
C1418      H1422   1.111       .  S
C1418      H1423   1.110       .  S
C1418      H1424   1.111       .  S
C1425      C1426   1.409       .  A
C1425      C1430   1.406       .  A
C1425      H1432   1.083       .  S
C1426      C1427   1.411       .  A
C1427      C1434   1.504       .  S
C1427      C1428   1.405       .  A
C1428      C1429   1.408       .  A
C1428      H1433   1.084       .  S
C1429      C1430   1.414       .  A
C1430      C1431   1.507       .  S
C1431      H1435   1.111       .  S
C1431      H1436   1.110       .  S
C1431      H1437   1.110       .  S
C1434      H1438   1.108       .  S
C1434      H1439   1.106       .  S
C1434      H1440   1.111       .  S
C1441      C1442   1.406       .  A
C1441      C1446   1.406       .  A
C1441      H1448   1.084       .  S
C1442      C1443   1.413       .  A
C1443      C1450   1.503       .  S
C1443      C1444   1.406       .  A
C1444      C1445   1.406       .  A
C1444      H1449   1.084       .  S
C1445      C1446   1.417       .  A
C1446      C1447   1.508       .  S
C1447      H1451   1.111       .  S
C1447      H1452   1.110       .  S
C1447      H1453   1.109       .  S
C1450      H1454   1.103       .  S
C1450      H1455   1.107       .  S
C1450      H1456   1.111       .  S
C1457      C1458   1.405       .  A
C1457      C1462   1.403       .  A
C1457      H1464   1.084       .  S
C1458      C1459   1.427       .  A
C1459      C1466   1.511       .  S
C1459      C1460   1.402       .  A
C1460      C1461   1.397       .  A
C1460      H1465   1.079       .  S
C1461      C1462   1.420       .  A
C1462      C1463   1.509       .  S
C1463      H1467   1.111       .  S
C1463      H1468   1.108       .  S
C1463      H1469   1.110       .  S
C1466      H1470   1.111       .  S
C1466      H1471   1.110       .  S
C1466      H1472   1.111       .  S
C1473      C1474   1.404       .  A
C1473      C1478   1.406       .  A
C1473      H1480   1.084       .  S
C1474      C1475   1.423       .  A
C1475      C1482   1.509       .  S
C1475      C1476   1.407       .  A
C1476      C1477   1.399       .  A
C1476      H1481   1.077       .  S
C1477      C1478   1.421       .  A
C1478      C1479   1.509       .  S
C1479      H1483   1.111       .  S
C1479      H1484   1.107       .  S
C1479      H1485   1.110       .  S
C1482      H1486   1.111       .  S
C1482      H1487   1.110       .  S
C1482      H1488   1.111       .  S
C1489      C1490   1.403       .  A
C1489      C1494   1.407       .  A
C1489      H1496   1.084       .  S
C1490      C1491   1.420       .  A
C1491      C1498   1.512       .  S
C1491      C1492   1.395       .  A
C1492      C1493   1.391       .  A
C1492      H1497   1.071       .  S
C1493      C1494   1.418       .  A
C1494      C1495   1.508       .  S
C1495      H1499   1.110       .  S
C1495      H1500   1.108       .  S
C1495      H1501   1.108       .  S
C1498      H1502   1.111       .  S
C1498      H1503   1.109       .  S
C1498      H1504   1.111       .  S
C1505      C1506   1.401       .  A
C1505      C1510   1.409       .  A
C1505      H1512   1.084       .  S
C1506      C1507   1.416       .  A
C1507      C1514   1.507       .  S
C1507      C1508   1.406       .  A
C1508      C1509   1.404       .  A
C1508      H1513   1.081       .  S
C1509      C1510   1.424       .  A
C1510      C1511   1.506       .  S
C1511      H1515   1.111       .  S
C1511      H1516   1.106       .  S
C1511      H1517   1.106       .  S
C1514      H1518   1.109       .  S
C1514      H1519   1.111       .  S
C1514      H1520   1.111       .  S
C1521      C1522   1.402       .  A
C1521      C1526   1.406       .  A
C1521      H1528   1.084       .  S
C1522      C1523   1.422       .  A
C1523      C1530   1.508       .  S
C1523      C1524   1.408       .  A
C1524      C1525   1.404       .  A
C1524      H1529   1.084       .  S
C1525      C1526   1.419       .  A
C1526      C1527   1.508       .  S
C1527      H1531   1.111       .  S
C1527      H1532   1.109       .  S
C1527      H1533   1.111       .  S
C1530      H1534   1.105       .  S
C1530      H1535   1.108       .  S
C1530      H1536   1.111       .  S
C1537      C1538   1.403       .  A
C1537      C1542   1.403       .  A
C1537      H1544   1.084       .  S
C1538      C1539   1.418       .  A
C1539      C1546   1.507       .  S
C1539      C1540   1.405       .  A
C1540      C1541   1.402       .  A
C1540      H1545   1.085       .  S
C1541      C1542   1.415       .  A
C1542      C1543   1.507       .  S
C1543      H1547   1.111       .  S
C1543      H1548   1.110       .  S
C1543      H1549   1.108       .  S
C1546      H1550   1.110       .  S
C1546      H1551   1.106       .  S
C1546      H1552   1.111       .  S
C1553      C1554   1.404       .  A
C1553      C1558   1.405       .  A
C1553      H1560   1.085       .  S
C1554      C1555   1.416       .  A
C1555      C1562   1.509       .  S
C1555      C1556   1.404       .  A
C1556      C1557   1.405       .  A
C1556      H1561   1.084       .  S
C1557      C1558   1.417       .  A
C1558      C1559   1.504       .  S
C1559      H1563   1.110       .  S
C1559      H1564   1.099       .  S
C1559      H1565   1.110       .  S
C1562      H1566   1.109       .  S
C1562      H1567   1.110   1_655  S
C1562      H1568   1.111       .  S
C1569      C1570   1.405       .  A
C1569      C1574   1.412       .  A
C1569      H1576   1.084       .  S
C1570      C1571   1.420       .  A
C1571      C1578   1.505       .  S
C1571      C1572   1.406       .  A
C1572      C1573   1.404       .  A
C1572      H1577   1.084       .  S
C1573      C1574   1.422       .  A
C1574      C1575   1.508       .  S
C1575      H1579   1.111       .  S
C1575      H1580   1.110       .  S
C1575      H1581   1.110       .  S
C1578      H1582   1.104       .  S
C1578      H1583   1.105       .  S
C1578      H1584   1.111       .  S
C1585      C1586   1.403       .  A
C1585      C1590   1.401       .  A
C1585      H1592   1.083       .  S
C1586      C1587   1.420       .  A
C1587      C1594   1.508       .  S
C1587      C1588   1.409       .  A
C1588      C1589   1.404       .  A
C1588      H1593   1.084       .  S
C1589      C1590   1.416       .  A
C1590      C1591   1.510       .  S
C1591      H1595   1.111       .  S
C1591      H1596   1.110       .  S
C1591      H1597   1.109       .  S
C1594      H1598   1.106       .  S
C1594      H1599   1.111       .  S
C1594      H1600   1.110       .  S
C1601      C1602   1.404       .  A
C1601      C1606   1.410       .  A
C1601      H1608   1.084       .  S
C1602      C1603   1.418       .  A
C1603      C1610   1.507       .  S
C1603      C1604   1.411       .  A
C1604      C1605   1.403       .  A
C1604      H1609   1.082       .  S
C1605      C1606   1.418       .  A
C1606      C1607   1.508       .  S
C1607      H1611   1.111       .  S
C1607      H1612   1.108       .  S
C1607      H1613   1.111       .  S
C1610      H1614   1.110       .  S
C1610      H1615   1.109       .  S
C1610      H1616   1.111       .  S
C1617      C1618   1.405       .  A
C1617      C1622   1.403       .  A
C1617      H1624   1.084       .  S
C1618      C1619   1.429       .  A
C1619      C1626   1.511       .  S
C1619      C1620   1.404       .  A
C1620      C1621   1.394       .  A
C1620      H1625   1.085       .  S
C1621      C1622   1.413       .  A
C1622      C1623   1.506       .  S
C1623      H1627   1.111       .  S
C1623      H1628   1.110       .  S
C1623      H1629   1.107       .  S
C1626      H1630   1.109       .  S
C1626      H1631   1.111       .  S
C1626      H1632   1.111       .  S
C1633      C1634   1.402       .  A
C1633      C1638   1.404       .  A
C1633      H1640   1.085       .  S
C1634      C1635   1.413       .  A
C1635      C1642   1.506       .  S
C1635      C1636   1.409       .  A
C1636      C1637   1.407       .  A
C1636      H1641   1.084       .  S
C1637      C1638   1.416       .  A
C1638      C1639   1.507       .  S
C1639      H1643   1.107       .  S
C1639      H1644   1.110       .  S
C1639      H1645   1.111       .  S
C1642      H1646   1.111       .  S
C1642      H1647   1.110       .  S
C1642      H1648   1.111       .  S
C1649      C1650   1.407       .  A
C1649      C1654   1.408       .  A
C1649      H1656   1.084       .  S
C1650      C1651   1.425       .  A
C1651      C1658   1.511       .  S
C1651      C1652   1.401       .  A
C1652      C1653   1.397       .  A
C1652      H1657   1.085       .  S
C1653      C1654   1.410       .  A
C1654      C1655   1.504       .  S
C1655      H1659   1.110       .  S
C1655      H1660   1.110       .  S
C1655      H1661   1.110       .  S
C1658      H1662   1.109       .  S
C1658      H1663   1.111       .  S
C1658      H1664   1.111       .  S
C1665      C1666   1.405       .  A
C1665      C1670   1.407       .  A
C1665      H1672   1.084       .  S
C1666      C1667   1.411       .  A
C1667      C1674   1.507       .  S
C1667      C1668   1.406       .  A
C1668      C1669   1.410       .  A
C1668      H1673   1.084       .  S
C1669      C1670   1.419       .  A
C1670      C1671   1.508       .  S
C1671      H1675   1.111       .  S
C1671      H1676   1.109       .  S
C1671      H1677   1.111       .  S
C1674      H1678   1.107       .  S
C1674      H1679   1.109       .  S
C1674      H1680   1.111       .  S
C1681      C1682   1.396       .  A
C1681      C1686   1.402       .  A
C1681      H1688   1.081       .  S
C1682      C1683   1.426       .  A
C1683      C1690   1.510       .  S
C1683      C1684   1.405       .  A
C1684      C1685   1.402       .  A
C1684      H1689   1.084       .  S
C1685      C1686   1.428       .  A
C1686      C1687   1.511       .  S
C1687      H1691   1.111       .  S
C1687      H1692   1.110       .  S
C1687      H1693   1.110       .  S
C1690      H1694   1.111       .  S
C1690      H1695   1.106       .  S
C1690      H1696   1.106       .  S
C1697      C1698   1.408       .  A
C1697      C1702   1.408       .  A
C1697      H1704   1.084       .  S
C1698      C1699   1.418       .  A
C1699      C1706   1.505       .  S
C1699      C1700   1.408       .  A
C1700      C1701   1.404       .  A
C1700      H1705   1.084       .  S
C1701      C1702   1.415       .  A
C1702      C1703   1.508       .  S
C1703      H1707   1.111       .  S
C1703      H1708   1.109       .  S
C1703      H1709   1.111       .  S
C1706      H1710   1.107       .  S
C1706      H1711   1.104       .  S
C1706      H1712   1.111       .  S
C1713      C1714   1.406       .  A
C1713      C1718   1.407       .  A
C1713      H1720   1.084       .  S
C1714      C1715   1.414       .  A
C1715      C1722   1.507       .  S
C1715      C1716   1.407       .  A
C1716      C1717   1.406       .  A
C1716      H1721   1.084       .  S
C1717      C1718   1.415       .  A
C1718      C1719   1.508       .  S
C1719      H1723   1.111       .  S
C1719      H1724   1.106       .  S
C1719      H1725   1.110       .  S
C1722      H1726   1.110       .  S
C1722      H1727   1.110   1_545  S
C1722      H1728   1.111       .  S
C1729      C1730   1.414       .  A
C1729      C1734   1.405       .  A
C1729      H1736   1.075       .  S
C1730      C1731   1.433       .  A
C1731      C1738   1.511       .  S
C1731      C1732   1.405       .  A
C1732      C1733   1.396       .  A
C1732      H1737   1.084       .  S
C1733      C1734   1.411       .  A
C1734      C1735   1.510       .  S
C1735      H1739   1.111   1_545  S
C1735      H1740   1.111   1_545  S
C1735      H1741   1.109       .  S
C1738      H1742   1.107       .  S
C1738      H1743   1.104       .  S
C1738      H1744   1.111       .  S
C1745      C1746   1.404       .  A
C1745      C1750   1.403       .  A
C1745      H1752   1.084       .  S
C1746      C1747   1.420       .  A
C1747      C1754   1.507       .  S
C1747      C1748   1.409       .  A
C1748      C1749   1.403       .  A
C1748      H1753   1.085       .  S
C1749      C1750   1.416       .  A
C1750      C1751   1.509       .  S
C1751      H1755   1.111       .  S
C1751      H1756   1.109       .  S
C1751      H1757   1.110       .  S
C1754      H1758   1.106       .  S
C1754      H1759   1.110       .  S
C1754      H1760   1.111       .  S
C1761      C1762   1.402       .  A
C1761      C1766   1.402       .  A
C1761      H1768   1.082       .  S
C1762      C1763   1.420       .  A
C1763      C1770   1.508       .  S
C1763      C1764   1.410       .  A
C1764      C1765   1.403       .  A
C1764      H1769   1.084       .  S
C1765      C1766   1.415       .  A
C1766      C1767   1.507       .  S
C1767      H1771   1.111       .  S
C1767      H1772   1.109       .  S
C1767      H1773   1.110       .  S
C1770      H1774   1.110       .  S
C1770      H1775   1.107       .  S
C1770      H1776   1.111       .  S
C1777      C1778   1.402       .  A
C1777      C1782   1.403       .  A
C1777      H1784   1.084       .  S
C1778      C1779   1.418       .  A
C1779      C1786   1.507       .  S
C1779      C1780   1.408       .  A
C1780      C1781   1.401       .  A
C1780      H1785   1.081       .  S
C1781      C1782   1.415       .  A
C1782      C1783   1.503       .  S
C1783      H1787   1.111       .  S
C1783      H1788   1.105       .  S
C1783      H1789   1.109       .  S
C1786      H1790   1.110       .  S
C1786      H1791   1.110       .  S
C1786      H1792   1.111       .  S
C1793      C1794   1.398       .  A
C1793      C1798   1.407       .  A
C1793      H1800   1.083       .  S
C1794      C1795   1.412       .  A
C1795      C1802   1.504       .  S
C1795      C1796   1.402       .  A
C1796      C1797   1.406       .  A
C1796      H1801   1.084       .  S
C1797      C1798   1.422       .  A
C1798      C1799   1.506       .  S
C1799      H1803   1.111       .  S
C1799      H1804   1.109       .  S
C1799      H1805   1.109       .  S
C1802      H1806   1.108       .  S
C1802      H1807   1.106       .  S
C1802      H1808   1.111       .  S
C1809      C1810   1.403       .  A
C1809      C1814   1.406       .  A
C1809      H1816   1.084       .  S
C1810      C1811   1.405       .  A
C1811      C1818   1.507       .  S
C1811      C1812   1.403       .  A
C1812      C1813   1.414       .  A
C1812      H1817   1.083       .  S
C1813      C1814   1.418       .  A
C1814      C1815   1.507       .  S
C1815      H1819   1.111       .  S
C1815      H1820   1.110       .  S
C1815      H1821   1.109       .  S
C1818      H1822   1.110       .  S
C1818      H1823   1.110       .  S
C1818      H1824   1.111       .  S
C1825      C1826   1.403       .  A
C1825      C1830   1.404       .  A
C1825      H1832   1.084       .  S
C1826      C1827   1.418       .  A
C1827      C1834   1.509       .  S
C1827      C1828   1.406       .  A
C1828      C1829   1.405       .  A
C1828      H1833   1.084       .  S
C1829      C1830   1.418       .  A
C1830      C1831   1.509       .  S
C1831      H1835   1.111       .  S
C1831      H1836   1.109       .  S
C1831      H1837   1.111       .  S
C1834      H1838   1.107       .  S
C1834      H1839   1.107       .  S
C1834      H1840   1.111       .  S
C1841      C1842   1.412       .  A
C1841      C1846   1.402       .  A
C1841      H1848   1.075       .  S
C1842      C1843   1.433       .  A
C1843      C1850   1.514       .  S
C1843      C1844   1.405       .  A
C1844      C1845   1.395       .  A
C1844      H1849   1.084       .  S
C1845      C1846   1.408       .  A
C1846      C1847   1.509       .  S
C1847      H1851   1.111   1_556  S
C1847      H1852   1.109   1_556  S
C1847      H1853   1.111   1_556  S
C1850      H1854   1.106       .  S
C1850      H1855   1.107       .  S
C1850      H1856   1.111       .  S
C1857      C1858   1.405       .  A
C1857      C1862   1.402       .  A
C1857      H1864   1.083       .  S
C1858      C1859   1.418       .  A
C1859      C1866   1.510       .  S
C1859      C1860   1.406       .  A
C1860      C1861   1.412       .  A
C1860      H1865   1.074       .  S
C1861      C1862   1.428       .  A
C1862      C1863   1.517       .  S
C1863      H1867   1.111       .  S
C1863      H1868   1.106       .  S
C1863      H1869   1.105       .  S
C1866      H1870   1.109       .  S
C1866      H1871   1.110       .  S
C1866      H1872   1.111       .  S
C1873      C1874   1.403       .  A
C1873      C1878   1.405       .  A
C1873      H1880   1.085       .  S
C1874      C1875   1.411       .  A
C1875      C1882   1.506       .  S
C1875      C1876   1.405       .  A
C1876      C1877   1.406       .  A
C1876      H1881   1.084       .  S
C1877      C1878   1.414       .  A
C1878      C1879   1.506       .  S
C1879      H1883   1.111       .  S
C1879      H1884   1.107       .  S
C1879      H1885   1.107       .  S
C1882      H1886   1.111       .  S
C1882      H1887   1.110       .  S
C1882      H1888   1.111       .  S
C1889      C1890   1.409       .  A
C1889      C1894   1.403       .  A
C1889      H1896   1.085       .  S
C1890      C1891   1.415       .  A
C1891      C1898   1.507       .  S
C1891      C1892   1.405       .  A
C1892      C1893   1.408       .  A
C1892      H1897   1.085       .  S
C1893      C1894   1.414       .  A
C1894      C1895   1.506       .  S
C1895      H1899   1.111       .  S
C1895      H1900   1.099       .  S
C1895      H1901   1.110       .  S
C1898      H1902   1.111       .  S
C1898      H1903   1.110       .  S
C1898      H1904   1.111       .  S
C1905      C1906   1.412       .  A
C1905      C1910   1.408       .  A
C1905      H1912   1.073       .  S
C1906      C1907   1.429       .  A
C1907      C1914   1.513       .  S
C1907      C1908   1.402       .  A
C1908      C1909   1.403       .  A
C1908      H1913   1.084       .  S
C1909      C1910   1.419       .  A
C1910      C1911   1.510       .  S
C1911      H1915   1.111       .  S
C1911      H1916   1.110       .  S
C1911      H1917   1.110       .  S
C1914      H1918   1.098       .  S
C1914      H1919   1.111       .  S
C1914      H1920   1.110       .  S
C1921      C1922   1.411       .  A
C1921      C1926   1.406       .  A
C1921      H1928   1.083       .  S
C1922      C1923   1.427       .  A
C1923      C1930   1.509       .  S
C1923      C1924   1.404       .  A
C1924      C1925   1.395       .  A
C1924      H1929   1.082       .  S
C1925      C1926   1.410       .  A
C1926      C1927   1.506       .  S
C1927      H1931   1.111       .  S
C1927      H1932   1.109       .  S
C1927      H1933   1.109       .  S
C1930      H1934   1.110       .  S
C1930      H1935   1.109       .  S
C1930      H1936   1.111       .  S
C1937      C1938   1.398       .  A
C1937      C1942   1.398       .  A
C1937      H1944   1.085       .  S
C1938      C1939   1.411       .  A
C1939      C1946   1.504       .  S
C1939      C1940   1.409       .  A
C1940      C1941   1.406       .  A
C1940      H1945   1.084       .  S
C1941      C1942   1.417       .  A
C1942      C1943   1.507       .  S
C1943      H1947   1.111       .  S
C1943      H1948   1.110       .  S
C1943      H1949   1.103       .  S
C1946      H1950   1.110       .  S
C1946      H1951   1.109       .  S
C1946      H1952   1.111       .  S
C1953      C1954   1.405       .  A
C1953      C1958   1.405       .  A
C1953      H1960   1.084       .  S
C1954      C1955   1.422       .  A
C1955      C1962   1.508       .  S
C1955      C1956   1.411       .  A
C1956      C1957   1.402       .  A
C1956      H1961   1.082       .  S
C1957      C1958   1.419       .  A
C1958      C1959   1.509       .  S
C1959      H1963   1.110       .  S
C1959      H1964   1.107       .  S
C1959      H1965   1.111       .  S
C1962      H1966   1.109       .  S
C1962      H1967   1.110       .  S
C1962      H1968   1.111       .  S
C1969      C1970   1.405       .  A
C1969      C1974   1.410       .  A
C1969      H1976   1.084       .  S
C1970      C1971   1.422       .  A
C1971      C1978   1.508       .  S
C1971      C1972   1.410       .  A
C1972      C1973   1.401       .  A
C1972      H1977   1.083       .  S
C1973      C1974   1.418       .  A
C1974      C1975   1.508       .  S
C1975      H1979   1.111       .  S
C1975      H1980   1.111       .  S
C1975      H1981   1.107       .  S
C1978      H1982   1.109       .  S
C1978      H1983   1.110       .  S
C1978      H1984   1.111       .  S
C1985      C1986   1.404       .  A
C1985      C1990   1.397       .  A
C1985      H1992   1.085       .  S
C1986      C1987   1.413       .  A
C1987      C1994   1.506       .  S
C1987      C1988   1.405       .  A
C1988      C1989   1.404       .  A
C1988      H1993   1.084       .  S
C1989      C1990   1.411       .  A
C1990      C1991   1.508       .  S
C1991      H1995   1.110       .  S
C1991      H1996   1.106       .  S
C1991      H1997   1.110       .  S
C1994      H1998   1.110       .  S
C1994      H1999   1.110       .  S
C1994      H2000   1.111       .  S
C2001      C2002   1.408       .  A
C2001      C2006   1.396       .  A
C2001      H2008   1.084       .  S
C2002      C2003   1.414       .  A
C2003      C2010   1.506       .  S
C2003      C2004   1.406       .  A
C2004      C2005   1.407       .  A
C2004      H2009   1.082       .  S
C2005      C2006   1.404       .  A
C2006      C2007   1.499       .  S
C2007      H2011   1.111       .  S
C2007      H2012   1.108       .  S
C2007      H2013   1.109       .  S
C2010      H2014   1.110       .  S
C2010      H2015   1.110       .  S
C2010      H2016   1.111       .  S
C2017      C2018   1.406       .  A
C2017      C2022   1.406       .  A
C2017      H2024   1.084       .  S
C2018      C2019   1.426       .  A
C2019      C2026   1.510       .  S
C2019      C2020   1.404       .  A
C2020      C2021   1.395       .  A
C2020      H2025   1.080       .  S
C2021      C2022   1.415       .  A
C2022      C2023   1.507       .  S
C2023      H2027   1.111       .  S
C2023      H2028   1.108       .  S
C2023      H2029   1.110       .  S
C2026      H2030   1.110       .  S
C2026      H2031   1.109       .  S
C2026      H2032   1.111       .  S
C2033      C2034   1.407       .  A
C2033      C2038   1.409       .  A
C2033      H2040   1.084       .  S
C2034      C2035   1.416       .  A
C2035      C2042   1.506       .  S
C2035      C2036   1.406       .  A
C2036      C2037   1.404       .  A
C2036      H2041   1.084       .  S
C2037      C2038   1.415       .  A
C2038      C2039   1.507       .  S
C2039      H2043   1.111       .  S
C2039      H2044   1.111       .  S
C2039      H2045   1.110   1_545  S
C2042      H2046   1.105       .  S
C2042      H2047   1.106       .  S
C2042      H2048   1.111       .  S
C2049      C2050   1.404       .  A
C2049      C2054   1.398       .  A
C2049      H2056   1.084       .  S
C2050      C2051   1.416       .  A
C2051      C2058   1.504       .  S
C2051      C2052   1.408       .  A
C2052      C2053   1.402       .  A
C2052      H2057   1.084       .  S
C2053      C2054   1.409       .  A
C2054      C2055   1.508       .  S
C2055      H2059   1.111       .  S
C2055      H2060   1.111       .  S
C2055      H2061   1.110       .  S
C2058      H2062   1.108       .  S
C2058      H2063   1.108       .  S
C2058      H2064   1.111       .  S
C2065      C2066   1.405       .  A
C2065      C2070   1.406       .  A
C2065      H2072   1.084       .  S
C2066      C2067   1.414       .  A
C2067      C2074   1.506       .  S
C2067      C2068   1.403       .  A
C2068      C2069   1.403       .  A
C2068      H2073   1.084       .  S
C2069      C2070   1.414       .  A
C2070      C2071   1.507       .  S
C2071      H2075   1.111       .  S
C2071      H2076   1.110       .  S
C2071      H2077   1.111       .  S
C2074      H2078   1.109       .  S
C2074      H2079   1.107       .  S
C2074      H2080   1.111       .  S
C2081      C2082   1.403       .  A
C2081      C2086   1.403       .  A
C2081      H2088   1.085       .  S
C2082      C2083   1.410       .  A
C2083      C2090   1.507       .  S
C2083      C2084   1.406       .  A
C2084      C2085   1.408       .  A
C2084      H2089   1.084       .  S
C2085      C2086   1.416       .  A
C2086      C2087   1.508       .  S
C2087      H2091   1.111       .  S
C2087      H2092   1.110       .  S
C2087      H2093   1.109       .  S
C2090      H2094   1.110       .  S
C2090      H2095   1.108       .  S
C2090      H2096   1.111       .  S
C2097      C2098   1.412       .  A
C2097      C2102   1.407       .  A
C2097      H2104   1.075       .  S
C2098      C2099   1.429       .  A
C2099      C2106   1.518       .  S
C2099      C2100   1.399       .  A
C2100      C2101   1.403       .  A
C2100      H2105   1.083       .  S
C2101      C2102   1.418       .  A
C2102      C2103   1.509       .  S
C2103      H2107   1.111       .  S
C2103      H2108   1.110       .  S
C2103      H2109   1.110       .  S
C2106      H2110   1.106       .  S
C2106      H2111   1.105       .  S
C2106      H2112   1.111       .  S
C2113      C2114   1.406       .  A
C2113      C2118   1.401       .  A
C2113      H2120   1.084       .  S
C2114      C2115   1.424       .  A
C2115      C2122   1.508       .  S
C2115      C2116   1.407       .  A
C2116      C2117   1.398       .  A
C2116      H2121   1.083       .  S
C2117      C2118   1.409       .  A
C2118      C2119   1.501       .  S
C2119      H2123   1.111       .  S
C2119      H2124   1.108       .  S
C2119      H2125   1.109       .  S
C2122      H2126   1.110       .  S
C2122      H2127   1.110       .  S
C2122      H2128   1.111       .  S
C2129      C2130   1.401       .  A
C2129      C2134   1.403       .  A
C2129      H2136   1.084       .  S
C2130      C2131   1.415       .  A
C2131      C2138   1.510   1_554  S
C2131      C2132   1.403       .  A
C2132      C2133   1.410       .  A
C2132      H2137   1.075       .  S
C2133      C2134   1.430       .  A
C2134      C2135   1.516       .  S
C2135      H2139   1.111       .  S
C2135      H2140   1.105       .  S
C2135      H2141   1.106       .  S
C2138      H2142   1.109       .  S
C2138      H2143   1.111       .  S
C2138      H2144   1.111       .  S
C2145      C2146   1.404       .  A
C2145      C2150   1.407       .  A
C2145      H2152   1.084       .  S
C2146      C2147   1.421       .  A
C2147      C2154   1.505       .  S
C2147      C2148   1.404       .  A
C2148      C2149   1.401       .  A
C2148      H2153   1.084       .  S
C2149      C2150   1.420       .  A
C2150      C2151   1.509       .  S
C2151      H2155   1.111       .  S
C2151      H2156   1.110       .  S
C2151      H2157   1.110       .  S
C2154      H2158   1.106       .  S
C2154      H2159   1.109       .  S
C2154      H2160   1.111       .  S
C2161      C2162   1.411       .  A
C2161      C2166   1.409       .  A
C2161      H2168   1.075       .  S
C2162      C2163   1.429       .  A
C2163      C2170   1.512       .  S
C2163      C2164   1.402       .  A
C2164      C2165   1.402       .  A
C2164      H2169   1.084       .  S
C2165      C2166   1.419       .  A
C2166      C2167   1.509       .  S
C2167      H2171   1.111       .  S
C2167      H2172   1.110       .  S
C2167      H2173   1.110       .  S
C2170      H2174   1.106       .  S
C2170      H2175   1.103       .  S
C2170      H2176   1.111       .  S
C2177      C2178   1.403       .  A
C2177      C2182   1.409       .  A
C2177      H2184   1.084       .  S
C2178      C2179   1.412       .  A
C2179      C2186   1.505       .  S
C2179      C2180   1.411       .  A
C2180      C2181   1.409       .  A
C2180      H2185   1.084       .  S
C2181      C2182   1.421       .  A
C2182      C2183   1.508       .  S
C2183      H2187   1.111       .  S
C2183      H2188   1.109       .  S
C2183      H2189   1.110       .  S
C2186      H2190   1.109       .  S
C2186      H2191   1.110       .  S
C2186      H2192   1.111       .  S
C2193      C2194   1.404       .  A
C2193      C2198   1.404       .  A
C2193      H2200   1.084       .  S
C2194      C2195   1.414       .  A
C2195      C2202   1.507       .  S
C2195      C2196   1.407       .  A
C2196      C2197   1.406       .  A
C2196      H2201   1.084       .  S
C2197      C2198   1.415       .  A
C2198      C2199   1.508       .  S
C2199      H2203   1.111       .  S
C2199      H2204   1.111       .  S
C2199      H2205   1.109   1_556  S
C2202      H2206   1.107       .  S
C2202      H2207   1.110       .  S
C2202      H2208   1.111       .  S
C2209      C2210   1.402       .  A
C2209      C2214   1.403       .  A
C2209      H2216   1.084       .  S
C2210      C2211   1.411       .  A
C2211      C2218   1.507       .  S
C2211      C2212   1.405       .  A
C2212      C2213   1.407       .  A
C2212      H2217   1.084       .  S
C2213      C2214   1.418       .  A
C2214      C2215   1.508       .  S
C2215      H2219   1.111       .  S
C2215      H2220   1.110   1_565  S
C2215      H2221   1.109       .  S
C2218      H2222   1.109       .  S
C2218      H2223   1.108       .  S
C2218      H2224   1.111       .  S
C2225      C2226   1.411       .  A
C2225      C2230   1.408       .  A
C2225      H2232   1.076       .  S
C2226      C2227   1.429       .  A
C2227      C2234   1.512       .  S
C2227      C2228   1.399       .  A
C2228      C2229   1.400       .  A
C2228      H2233   1.084       .  S
C2229      C2230   1.418       .  A
C2230      C2231   1.509   1_565  S
C2231      H2235   1.111       .  S
C2231      H2236   1.109       .  S
C2231      H2237   1.110       .  S
C2234      H2238   1.111       .  S
C2234      H2239   1.099       .  S
C2234      H2240   1.110       .  S
C2241      C2242   1.403       .  A
C2241      C2246   1.399       .  A
C2241      H2248   1.084       .  S
C2242      C2243   1.417       .  A
C2243      C2250   1.509       .  S
C2243      C2244   1.409       .  A
C2244      C2245   1.414       .  A
C2244      H2249   1.074       .  S
C2245      C2246   1.428       .  A
C2246      C2247   1.512       .  S
C2247      H2251   1.111       .  S
C2247      H2252   1.111       .  S
C2247      H2253   1.097       .  S
C2250      H2254   1.110       .  S
C2250      H2255   1.110       .  S
C2250      H2256   1.111       .  S
C2257      C2258   1.408       .  A
C2257      C2262   1.411       .  A
C2257      H2264   1.084       .  S
C2258      C2259   1.416       .  A
C2259      C2266   1.507       .  S
C2259      C2260   1.410       .  A
C2260      C2261   1.408       .  A
C2260      H2265   1.084       .  S
C2261      C2262   1.418       .  A
C2262      C2263   1.507       .  S
C2263      H2267   1.111       .  S
C2263      H2268   1.105       .  S
C2263      H2269   1.109       .  S
C2266      H2270   1.110       .  S
C2266      H2271   1.110       .  S
C2266      H2272   1.111       .  S
C2273      C2274   1.413       .  A
C2273      C2278   1.407       .  A
C2273      H2280   1.083       .  S
C2274      C2275   1.421       .  A
C2275      C2282   1.507       .  S
C2275      C2276   1.409       .  A
C2276      C2277   1.404       .  A
C2276      H2281   1.084       .  S
C2277      C2278   1.409       .  A
C2278      C2279   1.508       .  S
C2279      H2283   1.108       .  S
C2279      H2284   1.111       .  S
C2279      H2285   1.110       .  S
C2282      H2286   1.110       .  S
C2282      H2287   1.110       .  S
C2282      H2288   1.111       .  S
C2289      C2290   1.409       .  A
C2289      C2294   1.394       .  A
C2289      H2296   1.084       .  S
C2290      C2291   1.421       .  A
C2291      C2298   1.506       .  S
C2291      C2292   1.412       .  A
C2292      C2293   1.403       .  A
C2292      H2297   1.085       .  S
C2293      C2294   1.408       .  A
C2294      C2295   1.508       .  S
C2295      H2299   1.106       .  S
C2295      H2300   1.110       .  S
C2295      H2301   1.110       .  S
C2298      H2302   1.111       .  S
C2298      H2303   1.109       .  S
C2298      H2304   1.111       .  S
C2305      C2306   1.414       .  A
C2305      C2310   1.402       .  A
C2305      H2312   1.083       .  S
C2306      C2307   1.417       .  A
C2307      C2314   1.507       .  S
C2307      C2308   1.406       .  A
C2308      C2309   1.409       .  A
C2308      H2313   1.084       .  S
C2309      C2310   1.408       .  A
C2310      C2311   1.509       .  S
C2311      H2315   1.106       .  S
C2311      H2316   1.109       .  S
C2311      H2317   1.111       .  S
C2314      H2318   1.110       .  S
C2314      H2319   1.110       .  S
C2314      H2320   1.111       .  S
C2321      C2322   1.401       .  A
C2321      C2326   1.398       .  A
C2321      H2328   1.084       .  S
C2322      C2323   1.417       .  A
C2323      C2330   1.510       .  S
C2323      C2324   1.407       .  A
C2324      C2325   1.414       .  A
C2324      H2329   1.075       .  S
C2325      C2326   1.428       .  A
C2326      C2327   1.513       .  S
C2327      H2331   1.111       .  S
C2327      H2332   1.106       .  S
C2327      H2333   1.106       .  S
C2330      H2334   1.110       .  S
C2330      H2335   1.110       .  S
C2330      H2336   1.111       .  S
C2337      C2338   1.399       .  A
C2337      C2342   1.408       .  A
C2337      H2344   1.084       .  S
C2338      C2339   1.416       .  A
C2339      C2346   1.508       .  S
C2339      C2340   1.407       .  A
C2340      C2341   1.407       .  A
C2340      H2345   1.084       .  S
C2341      C2342   1.423       .  A
C2342      C2343   1.508       .  S
C2343      H2347   1.111       .  S
C2343      H2348   1.111       .  S
C2343      H2349   1.110       .  S
C2346      H2350   1.111       .  S
C2346      H2351   1.107       .  S
C2346      H2352   1.110       .  S
C2353      C2354   1.411       .  A
C2353      C2358   1.409       .  A
C2353      H2360   1.084       .  S
C2354      C2355   1.415       .  A
C2355      C2362   1.498       .  S
C2355      C2356   1.403       .  A
C2356      C2357   1.401       .  A
C2356      H2361   1.085       .  S
C2357      C2358   1.412       .  A
C2358      C2359   1.506       .  S
C2359      H2363   1.111       .  S
C2359      H2364   1.110       .  S
C2359      H2365   1.110       .  S
C2362      H2366   1.108       .  S
C2362      H2367   1.106       .  S
C2362      H2368   1.111       .  S
C2369      C2370   1.401       .  A
C2369      C2374   1.406       .  A
C2369      H2376   1.084       .  S
C2370      C2371   1.410       .  A
C2371      C2378   1.509       .  S
C2371      C2372   1.397       .  A
C2372      C2373   1.402       .  A
C2372      H2377   1.084       .  S
C2373      C2374   1.417       .  A
C2374      C2375   1.504       .  S
C2375      H2379   1.110       .  S
C2375      H2380   1.101       .  S
C2375      H2381   1.110       .  S
C2378      H2382   1.110       .  S
C2378      H2383   1.111       .  S
C2378      H2384   1.111       .  S
C2385      C2386   1.406       .  A
C2385      C2390   1.400       .  A
C2385      H2392   1.084       .  S
C2386      C2387   1.408       .  A
C2387      C2394   1.506       .  S
C2387      C2388   1.404       .  A
C2388      C2389   1.409       .  A
C2388      H2393   1.084       .  S
C2389      C2390   1.414       .  A
C2390      C2391   1.508       .  S
C2391      H2395   1.111       .  S
C2391      H2396   1.110       .  S
C2391      H2397   1.110       .  S
C2394      H2398   1.110       .  S
C2394      H2399   1.108       .  S
C2394      H2400   1.111       .  S
C2401      C2402   1.401       .  A
C2401      C2406   1.404       .  A
C2401      H2408   1.084       .  S
C2402      C2403   1.418       .  A
C2403      C2410   1.510       .  S
C2403      C2404   1.404       .  A
C2404      C2405   1.410       .  A
C2404      H2409   1.074       .  S
C2405      C2406   1.431       .  A
C2406      C2407   1.516       .  S
C2407      H2411   1.111       .  S
C2407      H2412   1.105       .  S
C2407      H2413   1.106       .  S
C2410      H2414   1.109       .  S
C2410      H2415   1.110       .  S
C2410      H2416   1.111       .  S
C2417      C2418   1.404       .  A
C2417      C2422   1.407       .  A
C2417      H2424   1.084       .  S
C2418      C2419   1.417       .  A
C2419      C2426   1.508       .  S
C2419      C2420   1.405       .  A
C2420      C2421   1.404       .  A
C2420      H2425   1.084       .  S
C2421      C2422   1.419       .  A
C2422      C2423   1.508       .  S
C2423      H2427   1.111       .  S
C2423      H2428   1.109       .  S
C2423      H2429   1.107       .  S
C2426      H2430   1.109       .  S
C2426      H2431   1.111       .  S
C2426      H2432   1.111       .  S
C2433      C2434   1.406       .  A
C2433      C2438   1.409       .  A
C2433      H2440   1.084       .  S
C2434      C2435   1.420       .  A
C2435      C2442   1.512       .  S
C2435      C2436   1.397       .  A
C2436      C2437   1.399       .  A
C2436      H2441   1.085       .  S
C2437      C2438   1.412       .  A
C2438      C2439   1.504       .  S
C2439      H2443   1.111       .  S
C2439      H2444   1.109       .  S
C2439      H2445   1.110       .  S
C2442      H2446   1.109       .  S
C2442      H2447   1.111       .  S
C2442      H2448   1.111       .  S
C2449      C2450   1.410       .  A
C2449      C2454   1.403       .  A
C2449      H2456   1.085       .  S
C2450      C2451   1.414       .  A
C2451      C2458   1.507       .  S
C2451      C2452   1.403       .  A
C2452      C2453   1.407       .  A
C2452      H2457   1.085       .  S
C2453      C2454   1.408       .  A
C2454      C2455   1.507       .  S
C2455      H2459   1.111       .  S
C2455      H2460   1.109       .  S
C2455      H2461   1.107       .  S
C2458      H2462   1.110       .  S
C2458      H2463   1.110       .  S
C2458      H2464   1.111       .  S
C2465      C2466   1.404       .  A
C2465      C2470   1.401       .  A
C2465      H2472   1.084       .  S
C2466      C2467   1.422       .  A
C2467      C2474   1.507       .  S
C2467      C2468   1.410       .  A
C2468      C2469   1.404       .  A
C2468      H2473   1.084       .  S
C2469      C2470   1.414       .  A
C2470      C2471   1.503       .  S
C2471      H2475   1.107       .  S
C2471      H2476   1.111       .  S
C2471      H2477   1.107       .  S
C2474      H2478   1.110       .  S
C2474      H2479   1.110       .  S
C2474      H2480   1.111       .  S
C2481      C2482   1.400       .  A
C2481      C2486   1.401       .  A
C2481      H2488   1.084       .  S
C2482      C2483   1.417       .  A
C2483      C2490   1.508       .  S
C2483      C2484   1.405       .  A
C2484      C2485   1.406       .  A
C2484      H2489   1.084       .  S
C2485      C2486   1.420       .  A
C2486      C2487   1.510       .  S
C2487      H2491   1.111       .  S
C2487      H2492   1.110       .  S
C2487      H2493   1.110       .  S
C2490      H2494   1.106       .  S
C2490      H2495   1.110       .  S
C2490      H2496   1.111       .  S
C2497      C2498   1.401       .  A
C2497      C2502   1.404       .  A
C2497      H2504   1.082       .  S
C2498      C2499   1.423       .  A
C2499      C2506   1.508       .  S
C2499      C2500   1.409       .  A
C2500      C2501   1.402       .  A
C2500      H2505   1.085       .  S
C2501      C2502   1.418       .  A
C2502      C2503   1.510       .  S
C2503      H2507   1.111       .  S
C2503      H2508   1.109       .  S
C2503      H2509   1.110       .  S
C2506      H2510   1.108       .  S
C2506      H2511   1.106       .  S
C2506      H2512   1.111       .  S
C2513      C2514   1.401       .  A
C2513      C2518   1.409       .  A
C2513      H2520   1.082       .  S
C2514      C2515   1.413       .  A
C2515      C2522   1.505       .  S
C2515      C2516   1.402       .  A
C2516      C2517   1.405       .  A
C2516      H2521   1.084       .  S
C2517      C2518   1.421       .  A
C2518      C2519   1.508       .  S
C2519      H2523   1.111       .  S
C2519      H2524   1.109       .  S
C2519      H2525   1.111       .  S
C2522      H2526   1.105       .  S
C2522      H2527   1.109       .  S
C2522      H2528   1.111       .  S
C2529      C2530   1.407       .  A
C2529      C2534   1.405       .  A
C2529      H2536   1.083       .  S
C2530      C2531   1.410       .  A
C2531      C2538   1.501       .  S
C2531      C2532   1.399       .  A
C2532      C2533   1.403       .  A
C2532      H2537   1.085       .  S
C2533      C2534   1.412       .  A
C2534      C2535   1.507       .  S
C2535      H2539   1.111       .  S
C2535      H2540   1.110       .  S
C2535      H2541   1.110       .  S
C2538      H2542   1.108       .  S
C2538      H2543   1.107       .  S
C2538      H2544   1.111       .  S
C2545      C2546   1.411       .  A
C2545      C2550   1.401       .  A
C2545      H2552   1.074       .  S
C2546      C2547   1.428       .  A
C2547      C2554   1.511       .  S
C2547      C2548   1.397       .  A
C2548      C2549   1.402       .  A
C2548      H2553   1.085       .  S
C2549      C2550   1.417       .  A
C2550      C2551   1.511       .  S
C2551      H2555   1.111       .  S
C2551      H2556   1.110       .  S
C2551      H2557   1.110       .  S
C2554      H2558   1.096       .  S
C2554      H2559   1.111       .  S
C2554      H2560   1.111       .  S
C2561      C2562   1.409       .  A
C2561      C2566   1.411       .  A
C2561      H2568   1.084       .  S
C2562      C2563   1.416       .  A
C2563      C2570   1.496       .  S
C2563      C2564   1.399       .  A
C2564      C2565   1.398       .  A
C2564      H2569   1.085       .  S
C2565      C2566   1.414       .  A
C2566      C2567   1.506       .  S
C2567      H2571   1.111       .  S
C2567      H2572   1.110       .  S
C2567      H2573   1.110       .  S
C2570      H2574   1.108       .  S
C2570      H2575   1.105       .  S
C2570      H2576   1.111       .  S
C2577      C2578   1.415       .  A
C2577      C2582   1.410       .  A
C2577      H2584   1.083       .  S
C2578      C2579   1.430       .  A
C2579      C2586   1.506       .  S
C2579      C2580   1.405       .  A
C2580      C2581   1.399       .  A
C2580      H2585   1.085       .  S
C2581      C2582   1.412       .  A
C2582      C2583   1.508       .  S
C2583      H2587   1.111       .  S
C2583      H2588   1.110       .  S
C2583      H2589   1.110       .  S
C2586      H2590   1.108       .  S
C2586      H2591   1.100       .  S
C2586      H2592   1.111       .  S
C2593      C2594   1.413       .  A
C2593      C2598   1.406       .  A
C2593      H2600   1.077       .  S
C2594      C2595   1.433       .  A
C2595      C2602   1.516       .  S
C2595      C2596   1.399       .  A
C2596      C2597   1.394       .  A
C2596      H2601   1.085       .  S
C2597      C2598   1.411       .  A
C2598      C2599   1.508       .  S
C2599      H2603   1.111       .  S
C2599      H2604   1.109       .  S
C2599      H2605   1.110       .  S
C2602      H2606   1.111       .  S
C2602      H2607   1.107       .  S
C2602      H2608   1.106       .  S
C2609      C2610   1.394       .  A
C2609      C2614   1.403       .  A
C2609      H2616   1.084       .  S
C2610      C2611   1.409       .  A
C2611      C2618   1.506       .  S
C2611      C2612   1.407       .  A
C2612      C2613   1.410       .  A
C2612      H2617   1.083       .  S
C2613      C2614   1.430       .  A
C2614      C2615   1.511       .  S
C2615      H2619   1.111       .  S
C2615      H2620   1.110       .  S
C2615      H2621   1.110       .  S
C2618      H2622   1.110       .  S
C2618      H2623   1.110       .  S
C2618      H2624   1.111       .  S
C2625      C2626   1.404       .  A
C2625      C2630   1.404       .  A
C2625      H2632   1.084       .  S
C2626      C2627   1.413       .  A
C2627      C2634   1.508       .  S
C2627      C2628   1.404       .  A
C2628      C2629   1.404       .  A
C2628      H2633   1.085       .  S
C2629      C2630   1.413       .  A
C2630      C2631   1.507       .  S
C2631      H2635   1.111       .  S
C2631      H2636   1.110       .  S
C2631      H2637   1.110       .  S
C2634      H2638   1.109       .  S
C2634      H2639   1.107       .  S
C2634      H2640   1.111       .  S
C2641      C2642   1.398       .  A
C2641      C2646   1.401       .  A
C2641      H2648   1.085       .  S
C2642      C2643   1.413       .  A
C2643      C2650   1.509       .  S
C2643      C2644   1.409       .  A
C2644      C2645   1.415       .  A
C2644      H2649   1.076       .  S
C2645      C2646   1.432       .  A
C2646      C2647   1.512       .  S
C2647      H2651   1.111       .  S
C2647      H2652   1.097       .  S
C2647      H2653   1.110       .  S
C2650      H2654   1.109       .  S
C2650      H2655   1.111       .  S
C2650      H2656   1.111       .  S
C2657      C2658   1.412       .  A
C2657      C2662   1.405       .  A
C2657      H2664   1.083       .  S
C2658      C2659   1.421       .  A
C2659      C2666   1.508       .  S
C2659      C2660   1.406       .  A
C2660      C2661   1.402       .  A
C2660      H2665   1.084       .  S
C2661      C2662   1.408       .  A
C2662      C2663   1.506       .  S
C2663      H2667   1.111       .  S
C2663      H2668   1.110       .  S
C2663      H2669   1.109       .  S
C2666      H2670   1.111       .  S
C2666      H2671   1.109       .  S
C2666      H2672   1.111       .  S
C2673      C2674   1.396       .  A
C2673      C2678   1.407       .  A
C2673      H2680   1.082       .  S
C2674      C2675   1.416       .  A
C2675      C2682   1.505       .  S
C2675      C2676   1.402       .  A
C2676      C2677   1.404       .  A
C2676      H2681   1.084       .  S
C2677      C2678   1.431       .  A
C2678      C2679   1.510       .  S
C2679      H2683   1.111       .  S
C2679      H2684   1.110       .  S
C2679      H2685   1.110       .  S
C2682      H2686   1.110       .  S
C2682      H2687   1.104       .  S
C2682      H2688   1.111       .  S
C2689      C2690   1.394       .  A
C2689      C2694   1.403       .  A
C2689      H2696   1.084       .  S
C2690      C2691   1.409       .  A
C2691      C2698   1.504       .  S
C2691      C2692   1.405       .  A
C2692      C2693   1.407       .  A
C2692      H2697   1.083       .  S
C2693      C2694   1.432       .  A
C2694      C2695   1.511       .  S
C2695      H2699   1.111       .  S
C2695      H2700   1.111       .  S
C2695      H2701   1.110       .  S
C2698      H2702   1.110       .  S
C2698      H2703   1.107       .  S
C2698      H2704   1.110       .  S
C2705      C2706   1.407       .  A
C2705      C2710   1.405       .  A
C2705      H2712   1.084       .  S
C2706      C2707   1.416       .  A
C2707      C2714   1.508       .  S
C2707      C2708   1.402       .  A
C2708      C2709   1.403       .  A
C2708      H2713   1.084       .  S
C2709      C2710   1.412       .  A
C2710      C2711   1.507       .  S
C2711      H2715   1.111       .  S
C2711      H2716   1.107       .  S
C2711      H2717   1.108       .  S
C2714      H2718   1.109       .  S
C2714      H2719   1.110       .  S
C2714      H2720   1.111       .  S
C2721      C2722   1.404       .  A
C2721      C2726   1.408       .  A
C2721      H2728   1.084       .  S
C2722      C2723   1.410       .  A
C2723      C2730   1.507       .  S
C2723      C2724   1.405       .  A
C2724      C2725   1.410       .  A
C2724      H2729   1.084       .  S
C2725      C2726   1.421       .  A
C2726      C2727   1.508       .  S
C2727      H2731   1.111       .  S
C2727      H2732   1.110       .  S
C2727      H2733   1.110       .  S
C2730      H2734   1.108       .  S
C2730      H2735   1.110       .  S
C2730      H2736   1.111       .  S
C2737      C2738   1.412       .  A
C2737      C2742   1.409       .  A
C2737      H2744   1.083       .  S
C2738      C2739   1.423       .  A
C2739      C2746   1.506       .  S
C2739      C2740   1.403       .  A
C2740      C2741   1.399       .  A
C2740      H2745   1.085       .  S
C2741      C2742   1.411       .  A
C2742      C2743   1.506       .  S
C2743      H2747   1.111       .  S
C2743      H2748   1.110       .  S
C2743      H2749   1.110       .  S
C2746      H2750   1.105       .  S
C2746      H2751   1.102       .  S
C2746      H2752   1.111       .  S
C2753      C2754   1.414       .  A
C2753      C2758   1.404       .  A
C2753      H2760   1.075       .  S
C2754      C2755   1.428       .  A
C2755      C2762   1.511       .  S
C2755      C2756   1.402       .  A
C2756      C2757   1.400       .  A
C2756      H2761   1.084       .  S
C2757      C2758   1.412       .  A
C2758      C2759   1.509       .  S
C2759      H2763   1.111       .  S
C2759      H2764   1.110       .  S
C2759      H2765   1.109       .  S
C2762      H2766   1.107       .  S
C2762      H2767   1.103       .  S
C2762      H2768   1.111       .  S
C2769      C2770   1.400       .  A
C2769      C2774   1.403       .  A
C2769      H2776   1.084       .  S
C2770      C2771   1.412       .  A
C2771      C2778   1.503       .  S
C2771      C2772   1.406       .  A
C2772      C2773   1.402       .  A
C2772      H2777   1.084       .  S
C2773      C2774   1.416       .  A
C2774      C2775   1.508       .  S
C2775      H2779   1.111       .  S
C2775      H2780   1.109       .  S
C2775      H2781   1.111       .  S
C2778      H2782   1.110       .  S
C2778      H2783   1.110       .  S
C2778      H2784   1.110       .  S
C2785      C2786   1.404       .  A
C2785      C2790   1.408       .  A
C2785      H2792   1.084       .  S
C2786      C2787   1.419       .  A
C2787      C2794   1.508       .  S
C2787      C2788   1.407       .  A
C2788      C2789   1.405       .  A
C2788      H2793   1.085       .  S
C2789      C2790   1.420       .  A
C2790      C2791   1.508       .  S
C2791      H2795   1.111       .  S
C2791      H2796   1.110       .  S
C2791      H2797   1.110       .  S
C2794      H2798   1.110       .  S
C2794      H2799   1.106       .  S
C2794      H2800   1.111       .  S
C2801      C2802   1.404       .  A
C2801      C2806   1.406       .  A
C2801      H2808   1.084       .  S
C2802      C2803   1.412       .  A
C2803      C2810   1.507       .  S
C2803      C2804   1.407       .  A
C2804      C2805   1.407       .  A
C2804      H2809   1.084       .  S
C2805      C2806   1.416       .  A
C2806      C2807   1.508       .  S
C2807      H2811   1.111       .  S
C2807      H2812   1.109       .  S
C2807      H2813   1.110   1_556  S
C2810      H2814   1.107       .  S
C2810      H2815   1.110       .  S
C2810      H2816   1.111       .  S
C2817      C2818   1.400       .  A
C2817      C2822   1.403       .  A
C2817      H2824   1.084       .  S
C2818      C2819   1.415       .  A
C2819      C2826   1.509       .  S
C2819      C2820   1.410       .  A
C2820      C2821   1.414       .  A
C2820      H2825   1.075       .  S
C2821      C2822   1.431       .  A
C2822      C2823   1.516       .  S
C2823      H2827   1.111       .  S
C2823      H2828   1.106       .  S
C2823      H2829   1.106       .  S
C2826      H2830   1.109       .  S
C2826      H2831   1.110       .  S
C2826      H2832   1.111       .  S
C2833      C2834   1.402       .  A
C2833      C2838   1.407       .  A
C2833      H2840   1.084       .  S
C2834      C2835   1.420       .  A
C2835      C2842   1.508       .  S
C2835      C2836   1.407       .  A
C2836      C2837   1.403       .  A
C2836      H2841   1.085       .  S
C2837      C2838   1.419       .  A
C2838      C2839   1.509       .  S
C2839      H2843   1.111       .  S
C2839      H2844   1.109       .  S
C2839      H2845   1.110       .  S
C2842      H2846   1.106       .  S
C2842      H2847   1.110       .  S
C2842      H2848   1.111       .  S
C2849      C2850   1.404       .  A
C2849      C2854   1.412       .  A
C2849      H2856   1.083       .  S
C2850      C2851   1.408       .  A
C2851      C2858   1.509       .  S
C2851      C2852   1.397       .  A
C2852      C2853   1.412       .  A
C2852      H2857   1.084       .  S
C2853      C2854   1.420       .  A
C2854      C2855   1.506       .  S
C2855      H2859   1.111       .  S
C2855      H2860   1.110       .  S
C2855      H2861   1.110       .  S
C2858      H2862   1.107       .  S
C2858      H2863   1.110       .  S
C2858      H2864   1.110       .  S
C2865      C2866   1.402       .  A
C2865      C2870   1.402       .  A
C2865      H2872   1.082       .  S
C2866      C2867   1.420       .  A
C2867      C2874   1.508       .  S
C2867      C2868   1.408       .  A
C2868      C2869   1.401       .  A
C2868      H2873   1.084       .  S
C2869      C2870   1.414       .  A
C2870      C2871   1.509       .  S
C2871      H2875   1.111       .  S
C2871      H2876   1.111       .  S
C2871      H2877   1.109       .  S
C2874      H2878   1.107       .  S
C2874      H2879   1.109       .  S
C2874      H2880   1.111       .  S
C2881      C2882   1.409       .  A
C2881      C2886   1.403       .  A
C2881      H2888   1.076       .  S
C2882      C2883   1.429       .  A
C2883      C2890   1.516       .  S
C2883      C2884   1.404       .  A
C2884      C2885   1.402       .  A
C2884      H2889   1.084       .  S
C2885      C2886   1.418       .  A
C2886      C2887   1.511       .  S
C2887      H2891   1.111       .  S
C2887      H2892   1.109       .  S
C2887      H2893   1.111       .  S
C2890      H2894   1.105       .  S
C2890      H2895   1.107       .  S
C2890      H2896   1.111       .  S
C2897      C2898   1.404       .  A
C2897      C2902   1.399       .  A
C2897      H2904   1.084       .  S
C2898      C2899   1.418       .  A
C2899      C2906   1.507       .  S
C2899      C2900   1.409       .  A
C2900      C2901   1.405       .  A
C2900      H2905   1.084       .  S
C2901      C2902   1.415       .  A
C2902      C2903   1.505       .  S
C2903      H2907   1.111       .  S
C2903      H2908   1.108       .  S
C2903      H2909   1.105       .  S
C2906      H2910   1.111       .  S
C2906      H2911   1.109       .  S
C2906      H2912   1.111       .  S
C2913      C2914   1.409       .  A
C2913      C2918   1.405       .  A
C2913      H2920   1.075       .  S
C2914      C2915   1.429       .  A
C2915      C2922   1.515       .  S
C2915      C2916   1.403       .  A
C2916      C2917   1.401       .  A
C2916      H2921   1.083       .  S
C2917      C2918   1.420       .  A
C2918      C2919   1.511       .  S
C2919      H2923   1.111       .  S
C2919      H2924   1.111       .  S
C2919      H2925   1.109       .  S
C2922      H2926   1.107       .  S
C2922      H2927   1.106       .  S
C2922      H2928   1.111       .  S
C2929      C2930   1.402       .  A
C2929      C2934   1.407       .  A
C2929      H2936   1.084       .  S
C2930      C2931   1.421       .  A
C2931      C2938   1.510       .  S
C2931      C2932   1.409       .  A
C2932      C2933   1.404       .  A
C2932      H2937   1.084       .  S
C2933      C2934   1.421       .  A
C2934      C2935   1.509       .  S
C2935      H2939   1.111       .  S
C2935      H2940   1.109       .  S
C2935      H2941   1.110       .  S
C2938      H2942   1.109       .  S
C2938      H2943   1.107       .  S
C2938      H2944   1.111       .  S
C2945      C2946   1.401       .  A
C2945      C2950   1.404       .  A
C2945      H2952   1.084       .  S
C2946      C2947   1.420       .  A
C2947      C2954   1.510   1_554  S
C2947      C2948   1.407       .  A
C2948      C2949   1.409       .  A
C2948      H2953   1.075       .  S
C2949      C2950   1.431       .  A
C2950      C2951   1.515       .  S
C2951      H2955   1.111       .  S
C2951      H2956   1.105       .  S
C2951      H2957   1.107       .  S
C2954      H2958   1.109       .  S
C2954      H2959   1.111       .  S
C2954      H2960   1.111       .  S
C2961      C2962   1.407       .  A
C2961      C2966   1.408       .  A
C2961      H2968   1.084       .  S
C2962      C2963   1.420       .  A
C2963      C2970   1.510       .  S
C2963      C2964   1.402       .  A
C2964      C2965   1.400       .  A
C2964      H2969   1.083       .  S
C2965      C2966   1.416       .  A
C2966      C2967   1.508       .  S
C2967      H2971   1.110       .  S
C2967      H2972   1.107       .  S
C2967      H2973   1.111       .  S
C2970      H2974   1.110       .  S
C2970      H2975   1.110       .  S
C2970      H2976   1.111       .  S
C2977      C2978   1.405       .  A
C2977      C2982   1.407       .  A
C2977      H2984   1.085       .  S
C2978      C2979   1.413       .  A
C2979      C2986   1.509       .  S
C2979      C2980   1.401       .  A
C2980      C2981   1.412       .  A
C2980      H2985   1.084       .  S
C2981      C2982   1.420       .  A
C2982      C2983   1.506       .  S
C2983      H2987   1.111       .  S
C2983      H2988   1.108       .  S
C2983      H2989   1.110       .  S
C2986      H2990   1.109       .  S
C2986      H2991   1.111       .  S
C2986      H2992   1.111       .  S
C2993      C2994   1.404       .  A
C2993      C2998   1.405       .  A
C2993      H3000   1.084       .  S
C2994      C2995   1.406       .  A
C2995      C3002   1.508       .  S
C2995      C2996   1.403       .  A
C2996      C2997   1.414       .  A
C2996      H3001   1.084       .  S
C2997      C2998   1.418       .  A
C2998      C2999   1.507       .  S
C2999      H3003   1.111       .  S
C2999      H3004   1.110       .  S
C2999      H3005   1.110       .  S
C3002      H3006   1.111       .  S
C3002      H3007   1.111       .  S
C3002      H3008   1.108       .  S
C3009      C3010   1.408       .  A
C3009      C3014   1.409       .  A
C3009      H3016   1.084       .  S
C3010      C3011   1.418       .  A
C3011      C3018   1.504       .  S
C3011      C3012   1.404       .  A
C3012      C3013   1.400       .  A
C3012      H3017   1.085       .  S
C3013      C3014   1.412       .  A
C3014      C3015   1.506       .  S
C3015      H3019   1.111       .  S
C3015      H3020   1.110   1_655  S
C3015      H3021   1.111       .  S
C3018      H3022   1.107       .  S
C3018      H3023   1.105       .  S
C3018      H3024   1.111       .  S
C3025      C3026   1.409       .  A
C3025      C3030   1.408       .  A
C3025      H3032   1.076       .  S
C3026      C3027   1.431       .  A
C3027      C3034   1.517       .  S
C3027      C3028   1.403       .  A
C3028      C3029   1.401       .  A
C3028      H3033   1.083       .  S
C3029      C3030   1.419       .  A
C3030      C3031   1.509   1_655  S
C3031      H3035   1.111       .  S
C3031      H3036   1.111       .  S
C3031      H3037   1.109       .  S
C3034      H3038   1.107       .  S
C3034      H3039   1.106       .  S
C3034      H3040   1.111       .  S
C3041      C3042   1.402       .  A
C3041      C3046   1.403       .  A
C3041      H3048   1.081       .  S
C3042      C3043   1.417       .  A
C3043      C3050   1.508       .  S
C3043      C3044   1.405       .  A
C3044      C3045   1.404       .  A
C3044      H3049   1.085       .  S
C3045      C3046   1.417       .  A
C3046      C3047   1.509       .  S
C3047      H3051   1.111       .  S
C3047      H3052   1.109       .  S
C3047      H3053   1.111       .  S
C3050      H3054   1.110       .  S
C3050      H3055   1.108       .  S
C3050      H3056   1.111       .  S
C3057      C3058   1.411       .  A
C3057      C3062   1.404       .  A
C3057      H3064   1.083       .  S
C3058      C3059   1.420       .  A
C3059      C3066   1.508       .  S
C3059      C3060   1.409       .  A
C3060      C3061   1.406       .  A
C3060      H3065   1.084       .  S
C3061      C3062   1.410       .  A
C3062      C3063   1.508       .  S
C3063      H3067   1.111       .  S
C3063      H3068   1.107       .  S
C3063      H3069   1.110       .  S
C3066      H3070   1.110       .  S
C3066      H3071   1.110       .  S
C3066      H3072   1.111       .  S
C3073      C3074   1.407       .  A
C3073      C3078   1.407       .  A
C3073      H3080   1.084       .  S
C3074      C3075   1.418       .  A
C3075      C3082   1.507       .  S
C3075      C3076   1.403       .  A
C3076      C3077   1.402       .  A
C3076      H3081   1.083       .  S
C3077      C3078   1.417       .  A
C3078      C3079   1.508       .  S
C3079      H3083   1.110       .  S
C3079      H3084   1.110       .  S
C3079      H3085   1.106       .  S
C3082      H3086   1.110       .  S
C3082      H3087   1.109       .  S
C3082      H3088   1.111       .  S
C3089      C3090   1.406       .  A
C3089      C3094   1.408       .  A
C3089      H3096   1.084       .  S
C3090      C3091   1.415       .  A
C3091      C3098   1.503       .  S
C3091      C3092   1.405       .  A
C3092      C3093   1.403       .  A
C3092      H3097   1.085       .  S
C3093      C3094   1.415       .  A
C3094      C3095   1.507       .  S
C3095      H3099   1.111       .  S
C3095      H3100   1.110       .  S
C3095      H3101   1.110       .  S
C3098      H3102   1.106       .  S
C3098      H3103   1.108       .  S
C3098      H3104   1.111       .  S
C3105      C3106   1.400       .  A
C3105      C3110   1.402       .  A
C3105      H3112   1.085       .  S
C3106      C3107   1.417       .  A
C3107      C3114   1.505       .  S
C3107      C3108   1.407       .  A
C3108      C3109   1.402       .  A
C3108      H3113   1.084       .  S
C3109      C3110   1.421       .  A
C3110      C3111   1.506       .  S
C3111      H3115   1.111       .  S
C3111      H3116   1.110       .  S
C3111      H3117   1.102       .  S
C3114      H3118   1.110       .  S
C3114      H3119   1.109       .  S
C3114      H3120   1.111       .  S
C3121      C3122   1.403       .  A
C3121      C3126   1.398       .  A
C3121      H3128   1.083       .  S
C3122      C3123   1.416       .  A
C3123      C3130   1.509       .  S
C3123      C3124   1.406       .  A
C3124      C3125   1.413       .  A
C3124      H3129   1.075       .  S
C3125      C3126   1.427       .  A
C3126      C3127   1.512       .  S
C3127      H3131   1.111       .  S
C3127      H3132   1.105       .  S
C3127      H3133   1.106       .  S
C3130      H3134   1.110       .  S
C3130      H3135   1.110       .  S
C3130      H3136   1.111       .  S
C3137      C3138   1.405       .  A
C3137      C3142   1.401       .  A
C3137      H3144   1.083       .  S
C3138      C3139   1.418       .  A
C3139      C3146   1.510       .  S
C3139      C3140   1.405       .  A
C3140      C3141   1.411       .  A
C3140      H3145   1.074       .  S
C3141      C3142   1.428       .  A
C3142      C3143   1.516       .  S
C3143      H3147   1.111       .  S
C3143      H3148   1.106       .  S
C3143      H3149   1.106       .  S
C3146      H3150   1.110       .  S
C3146      H3151   1.110       .  S
C3146      H3152   1.111       .  S
C3153      C3154   1.399       .  A
C3153      C3158   1.401       .  A
C3153      H3160   1.085       .  S
C3154      C3155   1.411       .  A
C3155      C3162   1.509       .  S
C3155      C3156   1.406       .  A
C3156      C3157   1.414       .  A
C3156      H3161   1.073       .  S
C3157      C3158   1.431       .  A
C3158      C3159   1.514       .  S
C3159      H3163   1.111       .  S
C3159      H3164   1.111       .  S
C3159      H3165   1.100       .  S
C3162      H3166   1.109       .  S
C3162      H3167   1.110       .  S
C3162      H3168   1.111       .  S
C3169      C3170   1.404       .  A
C3169      C3174   1.408       .  A
C3169      H3176   1.084       .  S
C3170      C3171   1.412       .  A
C3171      C3178   1.506       .  S
C3171      C3172   1.409       .  A
C3172      C3173   1.408       .  A
C3172      H3177   1.084       .  S
C3173      C3174   1.419       .  A
C3174      C3175   1.508       .  S
C3175      H3179   1.111       .  S
C3175      H3180   1.109       .  S
C3175      H3181   1.111       .  S
C3178      H3182   1.109       .  S
C3178      H3183   1.110       .  S
C3178      H3184   1.111       .  S
C3185      C3186   1.403       .  A
C3185      C3190   1.402       .  A
C3185      H3192   1.084       .  S
C3186      C3187   1.426       .  A
C3187      C3194   1.511       .  S
C3187      C3188   1.402       .  A
C3188      C3189   1.394       .  A
C3188      H3193   1.085       .  S
C3189      C3190   1.414       .  A
C3190      C3191   1.508       .  S
C3191      H3195   1.111       .  S
C3191      H3196   1.110       .  S
C3191      H3197   1.108       .  S
C3194      H3198   1.111       .  S
C3194      H3199   1.110       .  S
C3194      H3200   1.111       .  S
C3201      C3202   1.394       .  A
C3201      C3206   1.403       .  A
C3201      H3208   1.084       .  S
C3202      C3203   1.409       .  A
C3203      C3210   1.510       .  S
C3203      C3204   1.403       .  A
C3204      C3205   1.413       .  A
C3204      H3209   1.074       .  S
C3205      C3206   1.434       .  A
C3206      C3207   1.515       .  S
C3207      H3211   1.111       .  S
C3207      H3212   1.106       .  S
C3207      H3213   1.107       .  S
C3210      H3214   1.111       .  S
C3210      H3215   1.109       .  S
C3210      H3216   1.111       .  S
C3217      C3218   1.410       .  A
C3217      C3222   1.405       .  A
C3217      H3224   1.084       .  S
C3218      C3219   1.419       .  A
C3219      C3226   1.508       .  S
C3219      C3220   1.407       .  A
C3220      C3221   1.405       .  A
C3220      H3225   1.084       .  S
C3221      C3222   1.413       .  A
C3222      C3223   1.506       .  S
C3223      H3227   1.111       .  S
C3223      H3228   1.108       .  S
C3223      H3229   1.107       .  S
C3226      H3230   1.111       .  S
C3226      H3231   1.109       .  S
C3226      H3232   1.111       .  S
C3233      C3234   1.407       .  A
C3233      C3238   1.408       .  A
C3233      H3240   1.084       .  S
C3234      C3235   1.413       .  A
C3235      C3242   1.507       .  S
C3235      C3236   1.407       .  A
C3236      C3237   1.408       .  A
C3236      H3241   1.084       .  S
C3237      C3238   1.415       .  A
C3238      C3239   1.508       .  S
C3239      H3243   1.111       .  S
C3239      H3244   1.110       .  S
C3239      H3245   1.106       .  S
C3242      H3246   1.110       .  S
C3242      H3247   1.110       .  S
C3242      H3248   1.111       .  S
C3249      C3250   1.403       .  A
C3249      C3254   1.405       .  A
C3249      H3256   1.085       .  S
C3250      C3251   1.417       .  A
C3251      C3258   1.511       .  S
C3251      C3252   1.394       .  A
C3252      C3253   1.393       .  A
C3252      H3257   1.077       .  S
C3253      C3254   1.418       .  A
C3254      C3255   1.508       .  S
C3255      H3259   1.110       .  S
C3255      H3260   1.110       .  S
C3255      H3261   1.107       .  S
C3258      H3262   1.110       .  S
C3258      H3263   1.109       .  S
C3258      H3264   1.111       .  S
C3265      C3266   1.406       .  A
C3265      C3270   1.403       .  A
C3265      H3272   1.084       .  S
C3266      C3267   1.422       .  A
C3267      C3274   1.512       .  S
C3267      C3268   1.395       .  A
C3268      C3269   1.395       .  A
C3268      H3273   1.081       .  S
C3269      C3270   1.413       .  A
C3270      C3271   1.506       .  S
C3271      H3275   1.110       .  S
C3271      H3276   1.107       .  S
C3271      H3277   1.110       .  S
C3274      H3278   1.111       .  S
C3274      H3279   1.109       .  S
C3274      H3280   1.111       .  S
C3281      C3282   1.402       .  A
C3281      C3286   1.407       .  A
C3281      H3288   1.083       .  S
C3282      C3283   1.416       .  A
C3283      C3290   1.509       .  S
C3283      C3284   1.403       .  A
C3284      C3285   1.405       .  A
C3284      H3289   1.085       .  S
C3285      C3286   1.418       .  A
C3286      C3287   1.508       .  S
C3287      H3291   1.111       .  S
C3287      H3292   1.111       .  S
C3287      H3293   1.109       .  S
C3290      H3294   1.107       .  S
C3290      H3295   1.110       .  S
C3290      H3296   1.111       .  S
C3297      C3298   1.408       .  A
C3297      C3302   1.397       .  A
C3297      H3304   1.084       .  S
C3298      C3299   1.417       .  A
C3299      C3306   1.503       .  S
C3299      C3300   1.407       .  A
C3300      C3301   1.401       .  A
C3300      H3305   1.083       .  S
C3301      C3302   1.409       .  A
C3302      C3303   1.509       .  S
C3303      H3307   1.111       .  S
C3303      H3308   1.108       .  S
C3303      H3309   1.109       .  S
C3306      H3310   1.106       .  S
C3306      H3311   1.110       .  S
C3306      H3312   1.111       .  S
C3313      C3314   1.401       .  A
C3313      C3318   1.408       .  A
C3313      H3320   1.085       .  S
C3314      C3315   1.413       .  A
C3315      C3322   1.507       .  S
C3315      C3316   1.400       .  A
C3316      C3317   1.405       .  A
C3316      H3321   1.085       .  S
C3317      C3318   1.421       .  A
C3318      C3319   1.508       .  S
C3319      H3323   1.111       .  S
C3319      H3324   1.111       .  S
C3319      H3325   1.109       .  S
C3322      H3326   1.111       .  S
C3322      H3327   1.105       .  S
C3322      H3328   1.110       .  S
C3329      C3330   1.413       .  A
C3329      C3334   1.402       .  A
C3329      H3336   1.083       .  S
C3330      C3331   1.416       .  A
C3331      C3338   1.508       .  S
C3331      C3332   1.402       .  A
C3332      C3333   1.406       .  A
C3332      H3337   1.084       .  S
C3333      C3334   1.407       .  A
C3334      C3335   1.507       .  S
C3335      H3339   1.111       .  S
C3335      H3340   1.107       .  S
C3335      H3341   1.107       .  S
C3338      H3342   1.110       .  S
C3338      H3343   1.110       .  S
C3338      H3344   1.111       .  S
C3345      C3346   1.408       .  A
C3345      C3350   1.411       .  A
C3345      H3352   1.084       .  S
C3346      C3347   1.418       .  A
C3347      C3354   1.503       .  S
C3347      C3348   1.403       .  A
C3348      C3349   1.399       .  A
C3348      H3353   1.085       .  S
C3349      C3350   1.412       .  A
C3350      C3351   1.505       .  S
C3351      H3355   1.111       .  S
C3351      H3356   1.110   1_455  S
C3351      H3357   1.110       .  S
C3354      H3358   1.107       .  S
C3354      H3359   1.105       .  S
C3354      H3360   1.111       .  S
C3361      C3362   1.412       .  A
C3361      C3366   1.404       .  A
C3361      H3368   1.075       .  S
C3362      C3363   1.434       .  A
C3363      C3370   1.512       .  S
C3363      C3364   1.401       .  A
C3364      C3365   1.392       .  A
C3364      H3369   1.085       .  S
C3365      C3366   1.410       .  A
C3366      C3367   1.509       .  S
C3367      H3371   1.111   1_455  S
C3367      H3372   1.111   1_455  S
C3367      H3373   1.109   1_455  S
C3370      H3374   1.105       .  S
C3370      H3375   1.106       .  S
C3370      H3376   1.111       .  S
C3377      C3378   1.402       .  A
C3377      C3382   1.407       .  A
C3377      H3384   1.084       .  S
C3378      C3379   1.410       .  A
C3379      C3386   1.507       .  S
C3379      C3380   1.407       .  A
C3380      C3381   1.409       .  A
C3380      H3385   1.084       .  S
C3381      C3382   1.419       .  A
C3382      C3383   1.507       .  S
C3383      H3387   1.111       .  S
C3383      H3388   1.110   1_545  S
C3383      H3389   1.109       .  S
C3386      H3390   1.110       .  S
C3386      H3391   1.109       .  S
C3386      H3392   1.111       .  S
C3393      C3394   1.409       .  A
C3393      C3398   1.407       .  A
C3393      H3400   1.077       .  S
C3394      C3395   1.432       .  A
C3395      C3402   1.514       .  S
C3395      C3396   1.401       .  A
C3396      C3397   1.399       .  A
C3396      H3401   1.085       .  S
C3397      C3398   1.418       .  A
C3398      C3399   1.510       .  S
C3399      H3403   1.111       .  S
C3399      H3404   1.109   1_545  S
C3399      H3405   1.111       .  S
C3402      H3406   1.111       .  S
C3402      H3407   1.101       .  S
C3402      H3408   1.110       .  S
C3409      C3410   1.403       .  A
C3409      C3414   1.412       .  A
C3409      H3416   1.084       .  S
C3410      C3411   1.418       .  A
C3411      C3418   1.505       .  S
C3411      C3412   1.408       .  A
C3412      C3413   1.403       .  A
C3412      H3417   1.078       .  S
C3413      C3414   1.423       .  A
C3414      C3415   1.508       .  S
C3415      H3419   1.111       .  S
C3415      H3420   1.110       .  S
C3415      H3421   1.106       .  S
C3418      H3422   1.109       .  S
C3418      H3423   1.111       .  S
C3418      H3424   1.111       .  S
C3425      C3426   1.402       .  A
C3425      C3430   1.409       .  A
C3425      H3432   1.079       .  S
C3426      C3427   1.421       .  A
C3427      C3434   1.505       .  S
C3427      C3428   1.405       .  A
C3428      C3429   1.400       .  A
C3428      H3433   1.084       .  S
C3429      C3430   1.417       .  A
C3430      C3431   1.508       .  S
C3431      H3435   1.111       .  S
C3431      H3436   1.111       .  S
C3431      H3437   1.109       .  S
C3434      H3438   1.110       .  S
C3434      H3439   1.102       .  S
C3434      H3440   1.111       .  S
C3441      C3442   1.417       .  A
C3441      C3446   1.412       .  A
C3441      H3448   1.077       .  S
C3442      C3443   1.432       .  A
C3443      C3450   1.512       .  S
C3443      C3444   1.404       .  A
C3444      C3445   1.400       .  A
C3444      H3449   1.084       .  S
C3445      C3446   1.414       .  A
C3446      C3447   1.508       .  S
C3447      H3451   1.111       .  S
C3447      H3452   1.110       .  S
C3447      H3453   1.111       .  S
C3450      H3454   1.106       .  S
C3450      H3455   1.105       .  S
C3450      H3456   1.111       .  S
C3457      C3458   1.404       .  A
C3457      C3462   1.404       .  A
C3457      H3464   1.084       .  S
C3458      C3459   1.419       .  A
C3459      C3466   1.507       .  S
C3459      C3460   1.407       .  A
C3460      C3461   1.402       .  A
C3460      H3465   1.085       .  S
C3461      C3462   1.413       .  A
C3462      C3463   1.508       .  S
C3463      H3467   1.111       .  S
C3463      H3468   1.109       .  S
C3463      H3469   1.111       .  S
C3466      H3470   1.111       .  S
C3466      H3471   1.107       .  S
C3466      H3472   1.110       .  S
C3473      C3474   1.401       .  A
C3473      C3478   1.404       .  A
C3473      H3480   1.084       .  S
C3474      C3475   1.413       .  A
C3475      C3482   1.510       .  S
C3475      C3476   1.404       .  A
C3476      C3477   1.415       .  A
C3476      H3481   1.073       .  S
C3477      C3478   1.429       .  A
C3478      C3479   1.514       .  S
C3479      H3483   1.111       .  S
C3479      H3484   1.107       .  S
C3479      H3485   1.106       .  S
C3482      H3486   1.109       .  S
C3482      H3487   1.110       .  S
C3482      H3488   1.111       .  S
C3489      C3490   1.405       .  A
C3489      C3494   1.410       .  A
C3489      H3496   1.084       .  S
C3490      C3491   1.416       .  A
C3491      C3498   1.504       .  S
C3491      C3492   1.405       .  A
C3492      C3493   1.406       .  A
C3492      H3497   1.084       .  S
C3493      C3494   1.421       .  A
C3494      C3495   1.507       .  S
C3495      H3499   1.111       .  S
C3495      H3500   1.109       .  S
C3495      H3501   1.110   1_655  S
C3498      H3502   1.106       .  S
C3498      H3503   1.106       .  S
C3498      H3504   1.111       .  S
C3505      C3506   1.413       .  A
C3505      C3510   1.404       .  A
C3505      H3512   1.075       .  S
C3506      C3507   1.433       .  A
C3507      C3514   1.513       .  S
C3507      C3508   1.405       .  A
C3508      C3509   1.396       .  A
C3508      H3513   1.084       .  S
C3509      C3510   1.410       .  A
C3510      C3511   1.509   1_655  S
C3511      H3515   1.111       .  S
C3511      H3516   1.109       .  S
C3511      H3517   1.111       .  S
C3514      H3518   1.107       .  S
C3514      H3519   1.107       .  S
C3514      H3520   1.111       .  S
C3521      C3522   1.400       .  A
C3521      C3526   1.406       .  A
C3521      H3528   1.085       .  S
C3522      C3523   1.403       .  A
C3523      C3530   1.507       .  S
C3523      C3524   1.398       .  A
C3524      C3525   1.413       .  A
C3524      H3529   1.084       .  S
C3525      C3526   1.422       .  A
C3526      C3527   1.505       .  S
C3527      H3531   1.111       .  S
C3527      H3532   1.108       .  S
C3527      H3533   1.110       .  S
C3530      H3534   1.110       .  S
C3530      H3535   1.111       .  S
C3530      H3536   1.111       .  S
C3537      C3538   1.403       .  A
C3537      C3542   1.404       .  A
C3537      H3544   1.085       .  S
C3538      C3539   1.411       .  A
C3539      C3546   1.511       .  S
C3539      C3540   1.396       .  A
C3540      C3541   1.411       .  A
C3540      H3545   1.084       .  S
C3541      C3542   1.419       .  A
C3542      C3543   1.506       .  S
C3543      H3547   1.111       .  S
C3543      H3548   1.107       .  S
C3543      H3549   1.110       .  S
C3546      H3550   1.109       .  S
C3546      H3551   1.111       .  S
C3546      H3552   1.111       .  S
C3553      C3554   1.410       .  A
C3553      C3558   1.406       .  A
C3553      H3560   1.084       .  S
C3554      C3555   1.424       .  A
C3555      C3562   1.508       .  S
C3555      C3556   1.406       .  A
C3556      C3557   1.400       .  A
C3556      H3561   1.083       .  S
C3557      C3558   1.412       .  A
C3558      C3559   1.505       .  S
C3559      H3563   1.110       .  S
C3559      H3564   1.110       .  S
C3559      H3565   1.107       .  S
C3562      H3566   1.108       .  S
C3562      H3567   1.110       .  S
C3562      H3568   1.111       .  S
C3569      C3570   1.407       .  A
C3569      C3574   1.410       .  A
C3569      H3576   1.084       .  S
C3570      C3571   1.414       .  A
C3571      C3578   1.507       .  S
C3571      C3572   1.409       .  A
C3572      C3573   1.409       .  A
C3572      H3577   1.084       .  S
C3573      C3574   1.417       .  A
C3574      C3575   1.508       .  S
C3575      H3579   1.111       .  S
C3575      H3580   1.106       .  S
C3575      H3581   1.110       .  S
C3578      H3582   1.110       .  S
C3578      H3583   1.110       .  S
C3578      H3584   1.111       .  S
C3585      C3586   1.405       .  A
C3585      C3590   1.405       .  A
C3585      H3592   1.084       .  S
C3586      C3587   1.422       .  A
C3587      C3594   1.510       .  S
C3587      C3588   1.399       .  A
C3588      C3589   1.401       .  A
C3588      H3593   1.085       .  S
C3589      C3590   1.414       .  A
C3590      C3591   1.503       .  S
C3591      H3595   1.110       .  S
C3591      H3596   1.101       .  S
C3591      H3597   1.110       .  S
C3594      H3598   1.109       .  S
C3594      H3599   1.109       .  S
C3594      H3600   1.111       .  S
C3601      C3602   1.408       .  A
C3601      C3606   1.406       .  A
C3601      H3608   1.085       .  S
C3602      C3603   1.410       .  A
C3603      C3610   1.508       .  S
C3603      C3604   1.402       .  A
C3604      C3605   1.413       .  A
C3604      H3609   1.083       .  S
C3605      C3606   1.418       .  A
C3606      C3607   1.508       .  S
C3607      H3611   1.111       .  S
C3607      H3612   1.110       .  S
C3607      H3613   1.110       .  S
C3610      H3614   1.108       .  S
C3610      H3615   1.106       .  S
C3610      H3616   1.111       .  S
C3617      C3618   1.401       .  A
C3617      C3622   1.395       .  A
C3617      H3624   1.085       .  S
C3618      C3619   1.416       .  A
C3619      C3626   1.509       .  S
C3619      C3620   1.406       .  A
C3620      C3621   1.413       .  A
C3620      H3625   1.074       .  S
C3621      C3622   1.427       .  A
C3622      C3623   1.512       .  S
C3623      H3627   1.110       .  S
C3623      H3628   1.111       .  S
C3623      H3629   1.095       .  S
C3626      H3630   1.110       .  S
C3626      H3631   1.109       .  S
C3626      H3632   1.111       .  S
C3633      C3634   1.398       .  A
C3633      C3638   1.404       .  A
C3633      H3640   1.084       .  S
C3634      C3635   1.417       .  A
C3635      C3642   1.510       .  S
C3635      C3636   1.406       .  A
C3636      C3637   1.408       .  A
C3636      H3641   1.077       .  S
C3637      C3638   1.434       .  A
C3638      C3639   1.517       .  S
C3639      H3643   1.111       .  S
C3639      H3644   1.106       .  S
C3639      H3645   1.105       .  S
C3642      H3646   1.111       .  S
C3642      H3647   1.109   1_545  S
C3642      H3648   1.111   1_545  S
C3649      C3650   1.403       .  A
C3649      C3654   1.404       .  A
C3649      H3656   1.084       .  S
C3650      C3651   1.422       .  A
C3651      C3658   1.509       .  S
C3651      C3652   1.409       .  A
C3652      C3653   1.402       .  A
C3652      H3657   1.084       .  S
C3653      C3654   1.420       .  A
C3654      C3655   1.509       .  S
C3655      H3659   1.111       .  S
C3655      H3660   1.105       .  S
C3655      H3661   1.110       .  S
C3658      H3662   1.110       .  S
C3658      H3663   1.110       .  S
C3658      H3664   1.111       .  S
C3665      C3666   1.403       .  A
C3665      C3670   1.407       .  A
C3665      H3672   1.084       .  S
C3666      C3667   1.417       .  A
C3667      C3674   1.510       .  S
C3667      C3668   1.403       .  A
C3668      C3669   1.402       .  A
C3668      H3673   1.081       .  S
C3669      C3670   1.418       .  A
C3670      C3671   1.508       .  S
C3671      H3675   1.111       .  S
C3671      H3676   1.106       .  S
C3671      H3677   1.110       .  S
C3674      H3678   1.111       .  S
C3674      H3679   1.109       .  S
C3674      H3680   1.111       .  S
C3681      C3682   1.404       .  A
C3681      C3686   1.402       .  A
C3681      H3688   1.084       .  S
C3682      C3683   1.428       .  A
C3683      C3690   1.510       .  S
C3683      C3684   1.404       .  A
C3684      C3685   1.396       .  A
C3684      H3689   1.084       .  S
C3685      C3686   1.421       .  A
C3686      C3687   1.511       .  S
C3687      H3691   1.111       .  S
C3687      H3692   1.110       .  S
C3687      H3693   1.105       .  S
C3690      H3694   1.110       .  S
C3690      H3695   1.110       .  S
C3690      H3696   1.111       .  S
C3697      C3698   1.396       .  A
C3697      C3702   1.398       .  A
C3697      H3704   1.085       .  S
C3698      C3699   1.418       .  A
C3699      C3706   1.509       .  S
C3699      C3700   1.403       .  A
C3700      C3701   1.401       .  A
C3700      H3705   1.083       .  S
C3701      C3702   1.424       .  A
C3702      C3703   1.510       .  S
C3703      H3707   1.111       .  S
C3703      H3708   1.110       .  S
C3703      H3709   1.102       .  S
C3706      H3710   1.109       .  S
C3706      H3711   1.110       .  S
C3706      H3712   1.111       .  S
C3713      C3714   1.405       .  A
C3713      C3718   1.401       .  A
C3713      H3720   1.083       .  S
C3714      C3715   1.417       .  A
C3715      C3722   1.510       .  S
C3715      C3716   1.403       .  A
C3716      C3717   1.411       .  A
C3716      H3721   1.073       .  S
C3717      C3718   1.427       .  A
C3718      C3719   1.516       .  S
C3719      H3723   1.111       .  S
C3719      H3724   1.106       .  S
C3719      H3725   1.106       .  S
C3722      H3726   1.108       .  S
C3722      H3727   1.110       .  S
C3722      H3728   1.111       .  S
C3729      C3730   1.401       .  A
C3729      C3734   1.402       .  A
C3729      H3736   1.083       .  S
C3730      C3731   1.419       .  A
C3731      C3738   1.510   1_655  S
C3731      C3732   1.401       .  A
C3732      C3733   1.407       .  A
C3732      H3737   1.073       .  S
C3733      C3734   1.430       .  A
C3734      C3735   1.514       .  S
C3735      H3739   1.111       .  S
C3735      H3740   1.106       .  S
C3735      H3741   1.106       .  S
C3738      H3742   1.110       .  S
C3738      H3743   1.108       .  S
C3738      H3744   1.111       .  S
C3745      C3746   1.406       .  A
C3745      C3750   1.408       .  A
C3745      H3752   1.084       .  S
C3746      C3747   1.417       .  A
C3747      C3754   1.504       .  S
C3747      C3748   1.405       .  A
C3748      C3749   1.402       .  A
C3748      H3753   1.085       .  S
C3749      C3750   1.416       .  A
C3750      C3751   1.507       .  S
C3751      H3755   1.111       .  S
C3751      H3756   1.110       .  S
C3751      H3757   1.110       .  S
C3754      H3758   1.107       .  S
C3754      H3759   1.106       .  S
C3754      H3760   1.111       .  S
C3761      C3762   1.407       .  A
C3761      C3766   1.403       .  A
C3761      H3768   1.084       .  S
C3762      C3763   1.422       .  A
C3763      C3770   1.508       .  S
C3763      C3764   1.405       .  A
C3764      C3765   1.400       .  A
C3764      H3769   1.085       .  S
C3765      C3766   1.408       .  A
C3766      C3767   1.500       .  S
C3767      H3771   1.111       .  S
C3767      H3772   1.109       .  S
C3767      H3773   1.109       .  S
C3770      H3774   1.110       .  S
C3770      H3775   1.110       .  S
C3770      H3776   1.111       .  S
C3777      C3778   1.405       .  A
C3777      C3782   1.409       .  A
C3777      H3784   1.084       .  S
C3778      C3779   1.406       .  A
C3779      C3786   1.506       .  S
C3779      C3780   1.400       .  A
C3780      C3781   1.411       .  A
C3780      H3785   1.084       .  S
C3781      C3782   1.418       .  A
C3782      C3783   1.506       .  S
C3783      H3787   1.111       .  S
C3783      H3788   1.110       .  S
C3783      H3789   1.110       .  S
C3786      H3790   1.107       .  S
C3786      H3791   1.109       .  S
C3786      H3792   1.111       .  S
C3793      C3794   1.404       .  A
C3793      C3798   1.401       .  A
C3793      H3800   1.084       .  S
C3794      C3795   1.429       .  A
C3795      C3802   1.511       .  S
C3795      C3796   1.405       .  A
C3796      C3797   1.397       .  A
C3796      H3801   1.082       .  S
C3797      C3798   1.418       .  A
C3798      C3799   1.509       .  S
C3799      H3803   1.111       .  S
C3799      H3804   1.108       .  S
C3799      H3805   1.110       .  S
C3802      H3806   1.110       .  S
C3802      H3807   1.110       .  S
C3802      H3808   1.111       .  S
C3809      C3810   1.394       .  A
C3809      C3814   1.405       .  A
C3809      H3816   1.084       .  S
C3810      C3811   1.406       .  A
C3811      C3818   1.509       .  S
C3811      C3812   1.404       .  A
C3812      C3813   1.414       .  A
C3812      H3817   1.074       .  S
C3813      C3814   1.434       .  A
C3814      C3815   1.515       .  S
C3815      H3819   1.111       .  S
C3815      H3820   1.106       .  S
C3815      H3821   1.106       .  S
C3818      H3822   1.110       .  S
C3818      H3823   1.111       .  S
C3818      H3824   1.111       .  S
C3825      C3826   1.401       .  A
C3825      C3830   1.405       .  A
C3825      H3832   1.085       .  S
C3826      C3827   1.412       .  A
C3827      C3834   1.510       .  S
C3827      C3828   1.397       .  A
C3828      C3829   1.409       .  A
C3828      H3833   1.084       .  S
C3829      C3830   1.419       .  A
C3830      C3831   1.505       .  S
C3831      H3835   1.111       .  S
C3831      H3836   1.110       .  S
C3831      H3837   1.109       .  S
C3834      H3838   1.111       .  S
C3834      H3839   1.109       .  S
C3834      H3840   1.111       .  S
C3841      C3842   1.401       .  A
C3841      C3846   1.408       .  A
C3841      H3848   1.084       .  S
C3842      C3843   1.411       .  A
C3843      C3850   1.504       .  S
C3843      C3844   1.408       .  A
C3844      C3845   1.408       .  A
C3844      H3849   1.084       .  S
C3845      C3846   1.422       .  A
C3846      C3847   1.508       .  S
C3847      H3851   1.111       .  S
C3847      H3852   1.110       .  S
C3847      H3853   1.109       .  S
C3850      H3854   1.110       .  S
C3850      H3855   1.109       .  S
C3850      H3856   1.111       .  S
C3857      C3858   1.403       .  A
C3857      C3862   1.405       .  A
C3857      H3864   1.083       .  S
C3858      C3859   1.419       .  A
C3859      C3866   1.509       .  S
C3859      C3860   1.404       .  A
C3860      C3861   1.403       .  A
C3860      H3865   1.085       .  S
C3861      C3862   1.416       .  A
C3862      C3863   1.509       .  S
C3863      H3867   1.111       .  S
C3863      H3868   1.109       .  S
C3863      H3869   1.111       .  S
C3866      H3870   1.111       .  S
C3866      H3871   1.106       .  S
C3866      H3872   1.110       .  S
C3873      C3874   1.413       .  A
C3873      C3878   1.401       .  A
C3873      H3880   1.083       .  S
C3874      C3875   1.419       .  A
C3875      C3882   1.508       .  S
C3875      C3876   1.403       .  A
C3876      C3877   1.405       .  A
C3876      H3881   1.084       .  S
C3877      C3878   1.408       .  A
C3878      C3879   1.509       .  S
C3879      H3883   1.111       .  S
C3879      H3884   1.110       .  S
C3879      H3885   1.106       .  S
C3882      H3886   1.110       .  S
C3882      H3887   1.110       .  S
C3882      H3888   1.111       .  S
C3889      C3890   1.403       .  A
C3889      C3894   1.405       .  A
C3889      H3896   1.084       .  S
C3890      C3891   1.423       .  A
C3891      C3898   1.509       .  S
C3891      C3892   1.406       .  A
C3892      C3893   1.398       .  A
C3892      H3897   1.084       .  S
C3893      C3894   1.418       .  A
C3894      C3895   1.507       .  S
C3895      H3899   1.111       .  S
C3895      H3900   1.110       .  S
C3895      H3901   1.105       .  S
C3898      H3902   1.111       .  S
C3898      H3903   1.109       .  S
C3898      H3904   1.111       .  S
C3905      C3906   1.404       .  A
C3905      C3910   1.400       .  A
C3905      H3912   1.084       .  S
C3906      C3907   1.417       .  A
C3907      C3914   1.510       .  S
C3907      C3908   1.405       .  A
C3908      C3909   1.414       .  A
C3908      H3913   1.075       .  S
C3909      C3910   1.426       .  A
C3910      C3911   1.515       .  S
C3911      H3915   1.111       .  S
C3911      H3916   1.107       .  S
C3911      H3917   1.106       .  S
C3914      H3918   1.110       .  S
C3914      H3919   1.110       .  S
C3914      H3920   1.111       .  S
C3921      C3922   1.410       .  A
C3921      C3926   1.406       .  A
C3921      H3928   1.074       .  S
C3922      C3923   1.432       .  A
C3923      C3930   1.517       .  S
C3923      C3924   1.403       .  A
C3924      C3925   1.399       .  A
C3924      H3929   1.084       .  S
C3925      C3926   1.417       .  A
C3926      C3927   1.510       .  S
C3927      H3931   1.111       .  S
C3927      H3932   1.110       .  S
C3927      H3933   1.109       .  S
C3930      H3934   1.106       .  S
C3930      H3935   1.106       .  S
C3930      H3936   1.111       .  S
C3937      C3938   1.412       .  A
C3937      C3942   1.406       .  A
C3937      H3944   1.083       .  S
C3938      C3939   1.421       .  A
C3939      C3946   1.507       .  S
C3939      C3940   1.409       .  A
C3940      C3941   1.404       .  A
C3940      H3945   1.084       .  S
C3941      C3942   1.409       .  A
C3942      C3943   1.508       .  S
C3943      H3947   1.111       .  S
C3943      H3948   1.110       .  S
C3943      H3949   1.108       .  S
C3946      H3950   1.110       .  S
C3946      H3951   1.110       .  S
C3946      H3952   1.111       .  S
C3953      C3954   1.398       .  A
C3953      C3958   1.402       .  A
C3953      H3960   1.085       .  S
C3954      C3955   1.416       .  A
C3955      C3962   1.508       .  S
C3955      C3956   1.408       .  A
C3956      C3957   1.402       .  A
C3956      H3961   1.084       .  S
C3957      C3958   1.419       .  A
C3958      C3959   1.506       .  S
C3959      H3963   1.110       .  S
C3959      H3964   1.111       .  S
C3959      H3965   1.104       .  S
C3962      H3966   1.109       .  S
C3962      H3967   1.111       .  S
C3962      H3968   1.111       .  S
C3969      C3970   1.397       .  A
C3969      C3974   1.397       .  A
C3969      H3976   1.088       .  S
C3970      C3971   1.410       .  A
C3971      C3978   1.505       .  S
C3971      C3972   1.410       .  A
C3972      C3973   1.406       .  A
C3972      H3977   1.086       .  S
C3973      C3974   1.421       .  A
C3974      C3975   1.510       .  S
C3975      H3979   1.111       .  S
C3975      H3980   1.105       .  S
C3975      H3981   1.110       .  S
C3978      H3982   1.110       .  S
C3978      H3983   1.110       .  S
C3978      H3984   1.111       .  S
C3985      C3986   1.408       .  A
C3985      C3990   1.407       .  A
C3985      H3992   1.084       .  S
C3986      C3987   1.417       .  A
C3987      C3994   1.511       .  S
C3987      C3988   1.394       .  A
C3988      C3989   1.401       .  A
C3988      H3993   1.084       .  S
C3989      C3990   1.409       .  A
C3990      C3991   1.504       .  S
C3991      H3995   1.111       .  S
C3991      H3996   1.109       .  S
C3991      H3997   1.109       .  S
C3994      H3998   1.111       .  S
C3994      H3999   1.109       .  S
C3994      H4000   1.111       .  S
C4001      C4002   1.402       .  A
C4001      C4006   1.397       .  A
C4001      H4008   1.084       .  S
C4002      C4003   1.418       .  A
C4003      C4010   1.509       .  S
C4003      C4004   1.405       .  A
C4004      C4005   1.409       .  A
C4004      H4009   1.076       .  S
C4005      C4006   1.428       .  A
C4006      C4007   1.515       .  S
C4007      H4011   1.111       .  S
C4007      H4012   1.111       .  S
C4007      H4013   1.101       .  S
C4010      H4014   1.110       .  S
C4010      H4015   1.111       .  S
C4010      H4016   1.111       .  S
C4017      C4018   1.414       .  A
C4017      C4022   1.402       .  A
C4017      H4024   1.075       .  S
C4018      C4019   1.429       .  A
C4019      C4026   1.512       .  S
C4019      C4020   1.401       .  A
C4020      C4021   1.401       .  A
C4020      H4025   1.084       .  S
C4021      C4022   1.413       .  A
C4022      C4023   1.510       .  S
C4023      H4027   1.111       .  S
C4023      H4028   1.110       .  S
C4023      H4029   1.110       .  S
C4026      H4030   1.105       .  S
C4026      H4031   1.107       .  S
C4026      H4032   1.111       .  S
C4033      C4034   1.404       .  A
C4033      C4038   1.405       .  A
C4033      H4040   1.085       .  S
C4034      C4035   1.417       .  A
C4035      C4042   1.502       .  S
C4035      C4036   1.406       .  A
C4036      C4037   1.399       .  A
C4036      H4041   1.080       .  S
C4037      C4038   1.418       .  A
C4038      C4039   1.508       .  S
C4039      H4043   1.110       .  S
C4039      H4044   1.107       .  S
C4039      H4045   1.111       .  S
C4042      H4046   1.108       .  S
C4042      H4047   1.111       .  S
C4042      H4048   1.111       .  S
C4049      C4050   1.402       .  A
C4049      C4054   1.406       .  A
C4049      H4056   1.084       .  S
C4050      C4051   1.417       .  A
C4051      C4058   1.509       .  S
C4051      C4052   1.405       .  A
C4052      C4053   1.402       .  A
C4052      H4057   1.083       .  S
C4053      C4054   1.419       .  A
C4054      C4055   1.509       .  S
C4055      H4059   1.111       .  S
C4055      H4060   1.107       .  S
C4055      H4061   1.109       .  S
C4058      H4062   1.111       .  S
C4058      H4063   1.109       .  S
C4058      H4064   1.111       .  S
C4065      C4066   1.407       .  A
C4065      C4070   1.414       .  A
C4065      H4072   1.084       .  S
C4066      C4067   1.421       .  A
C4067      C4074   1.507       .  S
C4067      C4068   1.395       .  A
C4068      C4069   1.397       .  A
C4068      H4073   1.084       .  S
C4069      C4070   1.415       .  A
C4070      C4071   1.504       .  S
C4071      H4075   1.111       .  S
C4071      H4076   1.106       .  S
C4071      H4077   1.108       .  S
C4074      H4078   1.104       .  S
C4074      H4079   1.109       .  S
C4074      H4080   1.111       .  S
C4081      C4082   1.399       .  A
C4081      C4086   1.406       .  A
C4081      H4088   1.084       .  S
C4082      C4083   1.424       .  A
C4083      C4090   1.510       .  S
C4083      C4084   1.400       .  A
C4084      C4085   1.402       .  A
C4084      H4089   1.084       .  S
C4085      C4086   1.428       .  A
C4086      C4087   1.510       .  S
C4087      H4091   1.111       .  S
C4087      H4092   1.110       .  S
C4087      H4093   1.110       .  S
C4090      H4094   1.110       .  S
C4090      H4095   1.102       .  S
C4090      H4096   1.111       .  S
C4097      C4098   1.416       .  A
C4097      C4102   1.406       .  A
C4097      H4104   1.076       .  S
C4098      C4099   1.430       .  A
C4099      C4106   1.510       .  S
C4099      C4100   1.402       .  A
C4100      C4101   1.399       .  A
C4100      H4105   1.084       .  S
C4101      C4102   1.411       .  A
C4102      C4103   1.508       .  S
C4103      H4107   1.111       .  S
C4103      H4108   1.109       .  S
C4103      H4109   1.110       .  S
C4106      H4110   1.111       .  S
C4106      H4111   1.107       .  S
C4106      H4112   1.106       .  S
C4113      C4114   1.401       .  A
C4113      C4118   1.397       .  A
C4113      H4120   1.084       .  S
C4114      C4115   1.421       .  A
C4115      C4122   1.510       .  S
C4115      C4116   1.407       .  A
C4116      C4117   1.409       .  A
C4116      H4121   1.076       .  S
C4117      C4118   1.428       .  A
C4118      C4119   1.513       .  S
C4119      H4123   1.111       .  S
C4119      H4124   1.111       .  S
C4119      H4125   1.098       .  S
C4122      H4126   1.110       .  S
C4122      H4127   1.110       .  S
C4122      H4128   1.111       .  S
C4129      C4130   1.398       .  A
C4129      C4134   1.406       .  A
C4129      H4136   1.076       .  S
C4130      C4131   1.411       .  A
C4131      C4138   1.506       .  S
C4131      C4132   1.412       .  A
C4132      C4133   1.413       .  A
C4132      H4137   1.084       .  S
C4133      C4134   1.424       .  A
C4134      C4135   1.509       .  S
C4135      H4139   1.111       .  S
C4135      H4140   1.110       .  S
C4135      H4141   1.110       .  S
C4138      H4142   1.110       .  S
C4138      H4143   1.105       .  S
C4138      H4144   1.111       .  S
C4145      C4146   1.402       .  A
C4145      C4150   1.406       .  A
C4145      H4152   1.084       .  S
C4146      C4147   1.411       .  A
C4147      C4154   1.507       .  S
C4147      C4148   1.403       .  A
C4148      C4149   1.401       .  A
C4148      H4153   1.080       .  S
C4149      C4150   1.413       .  A
C4150      C4151   1.505       .  S
C4151      H4155   1.111       .  S
C4151      H4156   1.104       .  S
C4151      H4157   1.110       .  S
C4154      H4158   1.111       .  S
C4154      H4159   1.110       .  S
C4154      H4160   1.111       .  S
C4161      C4162   1.402       .  A
C4161      C4166   1.405       .  A
C4161      H4168   1.084       .  S
C4162      C4163   1.423       .  A
C4163      C4170   1.509       .  S
C4163      C4164   1.406       .  A
C4164      C4165   1.398       .  A
C4164      H4169   1.085       .  S
C4165      C4166   1.418       .  A
C4166      C4167   1.510       .  S
C4167      H4171   1.111       .  S
C4167      H4172   1.106       .  S
C4167      H4173   1.109       .  S
C4170      H4174   1.109       .  S
C4170      H4175   1.111       .  S
C4170      H4176   1.111       .  S
C4177      C4178   1.403       .  A
C4177      C4182   1.406       .  A
C4177      H4184   1.085       .  S
C4178      C4179   1.406       .  A
C4179      C4186   1.507       .  S
C4179      C4180   1.404       .  A
C4180      C4181   1.412       .  A
C4180      H4185   1.084       .  S
C4181      C4182   1.418       .  A
C4182      C4183   1.507       .  S
C4183      H4187   1.111       .  S
C4183      H4188   1.111       .  S
C4183      H4189   1.109       .  S
C4186      H4190   1.110       .  S
C4186      H4191   1.111       .  S
C4186      H4192   1.109       .  S
C4193      C4194   1.394       .  A
C4193      C4198   1.401       .  A
C4193      H4200   1.085       .  S
C4194      C4195   1.409       .  A
C4195      C4202   1.509   1_554  S
C4195      C4196   1.402       .  A
C4196      C4197   1.411       .  A
C4196      H4201   1.075       .  S
C4197      C4198   1.434       .  A
C4198      C4199   1.514       .  S
C4199      H4203   1.110       .  S
C4199      H4204   1.100       .  S
C4199      H4205   1.111       .  S
C4202      H4206   1.110       .  S
C4202      H4207   1.109       .  S
C4202      H4208   1.111       .  S
C4209      C4210   1.401       .  A
C4209      C4214   1.407       .  A
C4209      H4216   1.084       .  S
C4210      C4211   1.414       .  A
C4211      C4218   1.510       .  S
C4211      C4212   1.405       .  A
C4212      C4213   1.412       .  A
C4212      H4217   1.074       .  S
C4213      C4214   1.432       .  A
C4214      C4215   1.514       .  S
C4215      H4219   1.111       .  S
C4215      H4220   1.107       .  S
C4215      H4221   1.106       .  S
C4218      H4222   1.109       .  S
C4218      H4223   1.110       .  S
C4218      H4224   1.111       .  S
C4225      C4226   1.406       .  A
C4225      C4230   1.406       .  A
C4225      H4232   1.085       .  S
C4226      C4227   1.413       .  A
C4227      C4234   1.507       .  S
C4227      C4228   1.407       .  A
C4228      C4229   1.405       .  A
C4228      H4233   1.084       .  S
C4229      C4230   1.412       .  A
C4230      C4231   1.506       .  S
C4231      H4235   1.111       .  S
C4231      H4236   1.109       .  S
C4231      H4237   1.111       .  S
C4234      H4238   1.110       .  S
C4234      H4239   1.107       .  S
C4234      H4240   1.111       .  S
C4241      C4242   1.405       .  A
C4241      C4246   1.403       .  A
C4241      H4248   1.084       .  S
C4242      C4243   1.419       .  A
C4243      C4250   1.508       .  S
C4243      C4244   1.408       .  A
C4244      C4245   1.401       .  A
C4244      H4249   1.084       .  S
C4245      C4246   1.417       .  A
C4246      C4247   1.509       .  S
C4247      H4251   1.110       .  S
C4247      H4252   1.107       .  S
C4247      H4253   1.111       .  S
C4250      H4254   1.110       .  S
C4250      H4255   1.111       .  S
C4250      H4256   1.111       .  S
C4257      C4258   1.401       .  A
C4257      C4262   1.403       .  A
C4257      H4264   1.084       .  S
C4258      C4259   1.425       .  A
C4259      C4266   1.509       .  S
C4259      C4260   1.406       .  A
C4260      C4261   1.398       .  A
C4260      H4265   1.084       .  S
C4261      C4262   1.421       .  A
C4262      C4263   1.509       .  S
C4263      H4267   1.111       .  S
C4263      H4268   1.106       .  S
C4263      H4269   1.108       .  S
C4266      H4270   1.109       .  S
C4266      H4271   1.110       .  S
C4266      H4272   1.111       .  S
C4273      C4274   1.404       .  A
C4273      C4278   1.408       .  A
C4273      H4280   1.084       .  S
C4274      C4275   1.423       .  A
C4275      C4282   1.510       .  S
C4275      C4276   1.403       .  A
C4276      C4277   1.396       .  A
C4276      H4281   1.084       .  S
C4277      C4278   1.413       .  A
C4278      C4279   1.502       .  S
C4279      H4283   1.111       .  S
C4279      H4284   1.109       .  S
C4279      H4285   1.110       .  S
C4282      H4286   1.111       .  S
C4282      H4287   1.109       .  S
C4282      H4288   1.111       .  S
C4289      C4290   1.415       .  A
C4289      C4294   1.403       .  A
C4289      H4296   1.075       .  S
C4290      C4291   1.427       .  A
C4291      C4298   1.510       .  S
C4291      C4292   1.403       .  A
C4292      C4293   1.402       .  A
C4292      H4297   1.084       .  S
C4293      C4294   1.415       .  A
C4294      C4295   1.510       .  S
C4295      H4299   1.111       .  S
C4295      H4300   1.110       .  S
C4295      H4301   1.110       .  S
C4298      H4302   1.108       .  S
C4298      H4303   1.106       .  S
C4298      H4304   1.111       .  S
C4305      C4306   1.397       .  A
C4305      C4310   1.398       .  A
C4305      H4312   1.085       .  S
C4306      C4307   1.411       .  A
C4307      C4314   1.509       .  S
C4307      C4308   1.405       .  A
C4308      C4309   1.413       .  A
C4308      H4313   1.076       .  S
C4309      C4310   1.431       .  A
C4310      C4311   1.515       .  S
C4311      H4315   1.111       .  S
C4311      H4316   1.106       .  S
C4311      H4317   1.105       .  S
C4314      H4318   1.111       .  S
C4314      H4319   1.109       .  S
C4314      H4320   1.111       .  S
C4321      C4322   1.401       .  A
C4321      C4326   1.407       .  A
C4321      H4328   1.085       .  S
C4322      C4323   1.416       .  A
C4323      C4330   1.509       .  S
C4323      C4324   1.407       .  A
C4324      C4325   1.404       .  A
C4324      H4329   1.084       .  S
C4325      C4326   1.421       .  A
C4326      C4327   1.508       .  S
C4327      H4331   1.111       .  S
C4327      H4332   1.110       .  S
C4327      H4333   1.106       .  S
C4330      H4334   1.111       .  S
C4330      H4335   1.109       .  S
C4330      H4336   1.111       .  S
C4337      C4338   1.412       .  A
C4337      C4342   1.408       .  A
C4337      H4344   1.083       .  S
C4338      C4339   1.424       .  A
C4339      C4346   1.509       .  S
C4339      C4340   1.404       .  A
C4340      C4341   1.397       .  A
C4340      H4345   1.078       .  S
C4341      C4342   1.410       .  A
C4342      C4343   1.506       .  S
C4343      H4347   1.111       .  S
C4343      H4348   1.110       .  S
C4343      H4349   1.106       .  S
C4346      H4350   1.110       .  S
C4346      H4351   1.109       .  S
C4346      H4352   1.111       .  S
C4353      C4354   1.405       .  A
C4353      C4358   1.411       .  A
C4353      H4360   1.084       .  S
C4354      C4355   1.417       .  A
C4355      C4362   1.511       .  S
C4355      C4356   1.399       .  A
C4356      C4357   1.403       .  A
C4356      H4361   1.084       .  S
C4357      C4358   1.417       .  A
C4358      C4359   1.504       .  S
C4359      H4363   1.111       .  S
C4359      H4364   1.108       .  S
C4359      H4365   1.106       .  S
C4362      H4366   1.109       .  S
C4362      H4367   1.111       .  S
C4362      H4368   1.111       .  S
C4369      C4370   1.398       .  A
C4369      C4374   1.399       .  A
C4369      H4376   1.085       .  S
C4370      C4371   1.411       .  A
C4371      C4378   1.505       .  S
C4371      C4372   1.409       .  A
C4372      C4373   1.405       .  A
C4372      H4377   1.083       .  S
C4373      C4374   1.419       .  A
C4374      C4375   1.508       .  S
C4375      H4379   1.110       .  S
C4375      H4380   1.111       .  S
C4375      H4381   1.105       .  S
C4378      H4382   1.110       .  S
C4378      H4383   1.110       .  S
C4378      H4384   1.111       .  S
