geometry optimzed in LAMMPS
_audit_creation_date              2020-11-30 
_audit_creation_method            'lammps2cif' 
_symmetry_space_group_name_H-M    'P1' 
_symmetry_Int_Tables_number       1 
_symmetry_cell_setting            triclinic 
loop_ 
_symmetry_equiv_pos_as_xyz 
  x,y,z 
_cell_length_a                    44.41699439 
_cell_length_b                    44.5899774126878 
_cell_length_c                    44.32322691967393 
_cell_angle_alpha                 90.0673107738375 
_cell_angle_beta                  89.80103476455454 
_cell_angle_gamma                 90.17259173505167 
loop_ 
_atom_site_label 
_atom_site_type_symbol 
_atom_site_fract_x 
_atom_site_fract_y 
_atom_site_fract_z 
_atom_site_charge 
C1          C  0.77999466  0.75581117  0.73760218     0.80100
N2          N  0.76270644  0.78074118  0.73674656    -0.78200
C3          C  0.74039909  0.78511218  0.75721052     0.82600
N4          N  0.73551577  0.76430377  0.77910553    -0.78100
C5          C  0.75247535  0.73902337  0.78014953     0.82700
N6          N  0.77481632  0.73510087  0.75944709    -0.79800
C7          C  0.23631306  0.79133195  0.30716504     0.80100
N8          N  0.25863937  0.79344065  0.32789440    -0.78200
C9          C  0.27895565  0.81620787  0.32676735     0.82600
N10         N  0.27697105  0.83675769  0.30436240    -0.78100
C11         C  0.25466412  0.83497702  0.28358955     0.82700
N12         N  0.23456510  0.81208859  0.28496179    -0.79800
C13         C  0.83707027  0.77343052  0.31701614     0.80100
N14         N  0.81527848  0.77228427  0.33854766    -0.78200
C15         C  0.79388236  0.75060416  0.33788337     0.82600
N16         N  0.79413099  0.73022146  0.31533200    -0.78100
C17         C  0.81542761  0.73112624  0.29347787     0.82700
N18         N  0.83688447  0.75293181  0.29421573    -0.79800
C19         C  0.28717765  0.26040502  0.24151606     0.80100
N20         N  0.28344268  0.24095457  0.26473603    -0.78200
C21         C  0.26085071  0.24481361  0.28512123     0.82600
N22         N  0.24207475  0.26869715  0.28230051    -0.78100
C23         C  0.24554510  0.28822173  0.25896173     0.82700
N24         N  0.26814907  0.28394594  0.23883298    -0.79800
C25         C  0.80430082  0.32789555  0.29388885     0.80100
N26         N  0.77946757  0.33044262  0.27632385    -0.78200
C27         C  0.77320462  0.30936674  0.25516774     0.82600
N28         N  0.79186325  0.28549625  0.25181096    -0.78100
C29         C  0.81661269  0.28264303  0.26931161     0.82700
N30         N  0.82261640  0.30383566  0.29043441    -0.79800
C31         C  0.76112300  0.31807290  0.77641191     0.80100
N32         N  0.78263640  0.32186602  0.79775732    -0.78200
C33         C  0.78128601  0.30613039  0.82391694     0.82600
N34         N  0.75863126  0.28620144  0.82838150    -0.78100
C35         C  0.73712076  0.28213588  0.80722427     0.82700
N36         N  0.73848712  0.29814091  0.78122294    -0.79800
C37         C  0.28595779  0.81451609  0.74504040     0.80100
N38         N  0.28906672  0.83289449  0.76922970    -0.78200
C39         C  0.31234902  0.82936868  0.78862793     0.82600
N40         N  0.33253509  0.80711303  0.78366010    -0.78100
C41         C  0.32972663  0.78856074  0.75949100     0.82700
N42         N  0.30623011  0.79224222  0.74039034    -0.79800
O43         O  0.06181987  0.01875713  0.98884759    -0.88400
C44         C  0.97870412  0.02746202  0.95325626     0.87600
Mg45       Mg  0.07558477  0.97836193  0.00994856     1.58100
O46         O  0.99050793  0.06543633  0.02135691    -0.88200
O47         O  0.05804009  0.06643502  0.99962138    -0.75500
C48         C  0.96468658  0.94388366  0.10416024     0.92600
O49         O  0.02129098  0.96859004  0.95682395    -0.75300
O50         O  0.98496492  0.93141505  0.08815827    -0.82800
Mg51       Mg  0.04272527  0.01430470  0.94495328     1.58000
C52         C  0.92883386  0.06418045  0.09003010     0.92600
O53         O  0.06488470  0.05811427  0.92892931    -0.81100
H54         H  0.01286584  0.09630169  0.04524979    -0.06400
C55         C  0.94774536  0.98522693  0.02854463     0.87500
O56         O  0.06531493  0.99844426  0.05653171    -0.75600
O57         O  0.00357478  0.03722357  0.96120405    -0.88400
O58         O  0.93103456  0.07056683  0.06207418    -0.81200
C59         C  0.94137981  0.10456193  0.97143106     0.92700
C60         C  0.05895992  0.08593293  0.92653484     0.92500
Mg61       Mg  0.97973814  0.01413820  0.08189354     1.58000
O62         O  0.95812572  0.97144290  0.10083176    -0.81100
O63         O  0.00147337  0.05903050  0.06893466    -0.75300
O64         O  0.96831382  0.10019818  0.96251680    -0.81200
O65         O  0.08416002  0.99002714  0.92807640    -0.82900
O66         O  0.05284244  0.92952199  0.06532479    -0.81200
C67         C  0.00173522  0.07470608  0.04507355     0.87000
O68         O  0.01730857  0.99051970  0.06450138    -0.88400
O69         O  0.95870091  0.00866800  0.03874034    -0.88500
O70         O  0.96266948  0.96098621  0.02741217    -0.75500
Mg71       Mg  0.01197864  0.08049787  0.98114211     1.58000
O72         O  0.93029141  0.09046353  0.99369961    -0.82900
H73         H  0.09519711  0.04164257  0.00853854    -0.06600
O74         O  0.03060548  0.96143413  0.00480727    -0.88200
H75         H  0.00894501  0.93102043  0.97967232    -0.06400
H76         H  0.04388179  0.00956146  0.09543724    -0.06600
C77         C  0.02005131  0.95260944  0.98056021     0.86900
C78         C  0.07281033  0.04212516  0.99905704     0.87500
C79         C  0.04210770  0.99957129  0.07327501     0.87600
H80         H  0.92524447  0.98565789  0.01933386    -0.06600
O81         O  0.95575336  0.02845158  0.97049361    -0.75600
Mg82       Mg  0.00881064  0.94704412  0.04563853     1.58000
H83         H  0.97662774  0.01701168  0.93133776    -0.06600
C84         C  0.09759180  0.96733945  0.93889954     0.92600
O85         O  0.09106787  0.93681059  0.03376115    -0.82800
C86         C  0.08018324  0.92547811  0.05773854     0.92600
O87         O  0.03631139  0.09744647  0.93976173    -0.82800
Mg88       Mg  0.94542231  0.04887384  0.01715431     1.58200
O89         O  0.09207527  0.95754019  0.96534240    -0.81200
O90         O  0.94103735  0.04080618  0.10081369    -0.82900
C91         C  0.21735384  0.23253673  0.86787569     0.03000
C92         C  0.20899704  0.26000909  0.88056426    -0.13100
C93         C  0.22899472  0.28437058  0.88064012     0.00500
C94         C  0.25749725  0.28108979  0.86733353    -0.11600
C95         C  0.26577890  0.25396552  0.85341641     0.03000
C96         C  0.24574808  0.22944710  0.85445725    -0.11100
H97         H  0.18651507  0.26252255  0.88979672     0.08600
H98         H  0.27259637  0.30020340  0.86661279     0.06100
H99         H  0.25164741  0.20832668  0.84389467     0.06000
C100        C  0.85221538  0.21060599  0.24146287     0.03000
C101        C  0.83615036  0.23762228  0.24157082    -0.13100
C102        C  0.83463256  0.25499595  0.26805471     0.00500
C103        C  0.84911661  0.24492407  0.29424721    -0.11600
C104        C  0.86466640  0.21769163  0.29428878     0.03000
C105        C  0.86647271  0.20088247  0.26772667    -0.11100
H106        H  0.82503847  0.24502998  0.22118052     0.08600
H107        H  0.84744335  0.25770888  0.31499925     0.06100
H108        H  0.87933538  0.18025151  0.26733078     0.06000
C109        C  0.23337509  0.86973793  0.20942361     0.03000
C110        C  0.23051842  0.85740372  0.23827805    -0.13100
C111        C  0.25611961  0.85345899  0.25627547     0.00500
C112        C  0.28430683  0.86286594  0.24553356    -0.11600
C113        C  0.28736037  0.87420445  0.21631337     0.03000
C114        C  0.26176109  0.87805755  0.19845480    -0.11100
H115        H  0.20866802  0.84970764  0.24607548     0.08600
H116        H  0.30429479  0.85955637  0.25907258     0.06100
H117        H  0.26399905  0.88652327  0.17562850     0.06000
O118        O  0.06777094  0.46212762  0.53421299    -0.88400
C119        C  0.07221054  0.54204084  0.49076625     0.87600
Mg120      Mg  0.02889723  0.44881281  0.55884847     1.58100
O121        O  0.11365851  0.53927709  0.55809687    -0.88200
O122        O  0.11571993  0.46981336  0.54282444    -0.75500
C123        C  0.99246666  0.56715720  0.64159811     0.92600
O124        O  0.01448635  0.49929566  0.50207921    -0.75300
O125        O  0.98098436  0.54404560  0.62935494    -0.82800
Mg126      Mg  0.06008397  0.47874250  0.48950669     1.58000
C127        C  0.10971658  0.60971139  0.61774776     0.92600
O128        O  0.10313041  0.45760889  0.47124418    -0.81100
H129        H  0.14676851  0.52180138  0.58288605    -0.06400
C130        C  0.03136010  0.57773557  0.56432610     0.87500
O131        O  0.05068238  0.46438638  0.60326393    -0.75600
O132        O  0.08269551  0.51892302  0.50183869    -0.88400
O133        O  0.11548279  0.60382925  0.59024026    -0.81200
C134        C  0.14700732  0.58428326  0.49965235     0.92700
C135        C  0.13010304  0.46578902  0.46594756     0.92500
Mg136      Mg  0.06372164  0.55343947  0.61948369     1.58000
O137        O  0.01993473  0.57444818  0.63731888    -0.81100
O138        O  0.10957355  0.53331206  0.60691065    -0.75300
O139        O  0.14384501  0.55625386  0.49534679    -0.81200
O140        O  0.03472889  0.43723409  0.47559182    -0.82900
O141        O  0.97910702  0.47494665  0.61275204    -0.81200
C142        C  0.12445647  0.53141073  0.58248484     0.87000
O143        O  0.04118904  0.51247590  0.60754753    -0.88400
O144        O  0.05576614  0.56900208  0.57423625    -0.88500
O145        O  0.00779777  0.56168306  0.56610505    -0.75500
Mg146      Mg  0.12735818  0.51431105  0.51953048     1.58000
O147        O  0.13424065  0.59760447  0.52156063    -0.82900
H148        H  0.09325967  0.43232637  0.55596031    -0.06600
O149        O  0.01031709  0.49247381  0.55072599    -0.88200
H150        H  0.97740885  0.51078821  0.52627113    -0.06400
H151        H  0.06309882  0.48955462  0.63935467    -0.06600
C152        C  0.99960616  0.50090984  0.52650108     0.86900
C153        C  0.09217813  0.45364098  0.54442097     0.87500
C154        C  0.05181205  0.48898117  0.61779080     0.87600
H155        H  0.03029188  0.59912100  0.55291452    -0.06600
O156        O  0.07270083  0.56679797  0.50486946    -0.75600
Mg157      Mg  0.99652708  0.51713478  0.58935745     1.58000
H158        H  0.06141964  0.54091525  0.46896558    -0.06600
C159        C  0.01226429  0.42495457  0.48846770     0.92600
O160        O  0.98852327  0.43386954  0.58616388    -0.82800
C161        C  0.97506587  0.44713448  0.60773034     0.92600
O162        O  0.14225586  0.48800030  0.47909951    -0.82800
Mg163      Mg  0.09419802  0.58246019  0.54907077     1.58200
O164        O  0.00650644  0.42933114  0.51634378    -0.81200
O165        O  0.08882555  0.59624056  0.63214209    -0.82900
C166        C  0.84169673  0.36867633  0.35843751     0.03000
C167        C  0.83766277  0.35054503  0.33301823    -0.13100
C168        C  0.80947477  0.34907896  0.31886207     0.00500
C169        C  0.78552873  0.36618948  0.33032193    -0.11600
C170        C  0.78938611  0.38407476  0.35605408     0.03000
C171        C  0.81762163  0.38540023  0.36988281    -0.11100
H172        H  0.85640784  0.33747130  0.32453555     0.08600
H173        H  0.76348787  0.36479754  0.31999071     0.06100
H174        H  0.82066239  0.39858713  0.39021749     0.06000
C175        C  0.19902324  0.71884534  0.33032571     0.03000
C176        C  0.18527796  0.71012174  0.30336891    -0.13100
C177        C  0.18691882  0.72840052  0.27772509     0.00500
C178        C  0.20282959  0.75560472  0.27929432    -0.11600
C179        C  0.21706717  0.76438151  0.30626298     0.03000
C180        C  0.21483429  0.74591825  0.33175801    -0.11100
H181        H  0.17390154  0.68860892  0.30222083     0.08600
H182        H  0.20469338  0.76946260  0.25930758     0.06100
H183        H  0.22549091  0.75243699  0.35273998     0.06000
C184        C  0.85204340  0.72693075  0.70254237     0.03000
C185        C  0.86329644  0.75298692  0.68886800    -0.13100
C186        C  0.84670149  0.77969599  0.68960942     0.00500
C187        C  0.81824140  0.77964215  0.70356256    -0.11600
C188        C  0.80726341  0.75388936  0.71841741     0.03000
C189        C  0.82424904  0.72741325  0.71742540    -0.11100
H190        H  0.88533076  0.75255829  0.67828536     0.08600
H191        H  0.80526180  0.80015916  0.70392089     0.06100
H192        H  0.81625268  0.70731196  0.72864494     0.06000
O193        O  0.99621842  0.00620149  0.55472009    -0.88400
C194        C  0.95239524  0.08504713  0.54519887     0.87600
Mg195      Mg  0.01782636  0.99437124  0.59546608     1.58100
O196        O  0.02255753  0.08142296  0.50925700    -0.88200
O197        O  0.00839477  0.01210992  0.50724995    -0.75500
C198        C  0.09865502  0.11260833  0.63332328     0.92600
O199        O  0.95869046  0.04281036  0.60458395    -0.75300
O200        O  0.08405694  0.09103184  0.64508370    -0.82800
Mg201      Mg  0.95046778  0.02062772  0.55840311     1.58000
C202        C  0.08360338  0.15079438  0.51297289     0.92600
O203        O  0.93810551  0.99736283  0.51381969    -0.81100
H204        H  0.04955551  0.06310642  0.47814933    -0.06400
C205        C  0.02243025  0.12348294  0.59054855     0.87500
O206        O  0.06330960  0.01030937  0.57652746    -0.75600
O207        O  0.96329660  0.06130366  0.53568317    -0.88400
O208        O  0.05637983  0.14514175  0.50608068    -0.81200
C209        C  0.97011431  0.12487232  0.46830816     0.92700
C210        C  0.93641694  0.00298803  0.48568301     0.92500
Mg211      Mg  0.07980469  0.09831498  0.56224181     1.58000
O212        O  0.09518031  0.12027693  0.60590809    -0.81100
O213        O  0.07087844  0.07646475  0.51629935    -0.75300
O214        O  0.96280453  0.09751695  0.47247614    -0.81200
O215        O  0.93689739  0.97781013  0.58317840    -0.82900
O216        O  0.06855067  0.02229859  0.64670553    -0.81200
C217        C  0.04758725  0.07351767  0.50010565     0.87000
O218        O  0.06565646  0.05858434  0.58496376    -0.88400
O219        O  0.03447118  0.11428290  0.56710223    -0.88500
O220        O  0.02214334  0.10799153  0.61459203    -0.75500
Mg221      Mg  0.98545552  0.05576340  0.49274637     1.58000
O222        O  0.99053636  0.13794760  0.48326214    -0.82900
H223        H  0.02026402  0.97577525  0.53196295    -0.06600
O224        O  0.00703359  0.03813221  0.61293734    -0.88200
H225        H  0.97913867  0.05683306  0.64302419    -0.06400
H226        H  0.09972571  0.03594843  0.56625463    -0.06600
C227        C  0.98168267  0.04610491  0.62128117     0.86900
C228        C  0.00841168  0.99690943  0.53143335     0.87500
C229        C  0.07732859  0.03513840  0.57585348     0.87600
H230        H  0.01087887  0.14478823  0.59025279    -0.06600
O231        O  0.96704622  0.10963028  0.54475157    -0.75600
Mg232      Mg  0.04477008  0.06391135  0.62845695     1.58000
H233        H  0.93004333  0.08472982  0.55492689    -0.06600
C234        C  0.94911130  0.96447524  0.60538829     0.92600
O235        O  0.04217763  0.98106429  0.63754055    -0.82800
C236        C  0.06413567  0.99432628  0.65017266     0.92600
O237        O  0.94773381  0.02676526  0.47446117    -0.82800
Mg238      Mg  0.01297892  0.12538114  0.52607741     1.58200
O239        O  0.97519958  0.97190938  0.61470219    -0.81200
O240        O  0.09540108  0.13973995  0.53660506    -0.82900
C241        C  0.21451789  0.84326677  0.70945107     0.03000
C242        C  0.24224927  0.84293218  0.72431855    -0.13100
C243        C  0.25850707  0.81604646  0.72664533     0.00500
C244        C  0.24670666  0.78966532  0.71395353    -0.11600
C245        C  0.21865019  0.78985999  0.69968700     0.03000
C246        C  0.20281162  0.81681212  0.69721759    -0.11100
H247        H  0.25080338  0.86338279  0.73442759     0.08600
H248        H  0.25841520  0.76856674  0.71675711     0.06100
H249        H  0.18100702  0.81711511  0.68628411     0.06000
C250        C  0.23048703  0.20387105  0.35386192     0.03000
C251        C  0.23179950  0.22244562  0.32840608    -0.13100
C252        C  0.25852770  0.22452864  0.31142321     0.00500
C253        C  0.28400328  0.20835428  0.32073728    -0.11600
C254        C  0.28290730  0.18976467  0.34624893     0.03000
C255        C  0.25574931  0.18719985  0.36228328    -0.11100
H256        H  0.21226928  0.23557083  0.32227310     0.08600
H257        H  0.30520810  0.21144843  0.30900116     0.06100
H258        H  0.25454273  0.17320801  0.38224184     0.06000
C259        C  0.87600412  0.84515735  0.34012387     0.03000
C260        C  0.88841285  0.85433658  0.31255806    -0.13100
C261        C  0.88572771  0.83635066  0.28676171     0.00500
C262        C  0.87085317  0.80861855  0.28885344    -0.11600
C263        C  0.85763690  0.79948649  0.31622199     0.03000
C264        C  0.86085442  0.81769203  0.34197488    -0.11100
H265        H  0.89929719  0.87608193  0.31098441     0.08600
H266        H  0.86828231  0.79498106  0.26877545     0.06100
H267        H  0.85043651  0.81126441  0.36315901     0.06000
O268        O  0.49296047  0.50925063  0.04571617    -0.88400
C269        C  0.44686219  0.58746015  0.04354221     0.87600
Mg270      Mg  0.51491249  0.49354245  0.08505034     1.58100
O271        O  0.51665493  0.58707863  0.00720494    -0.88200
O272        O  0.50344117  0.51851110  0.99845976    -0.75500
C273        C  0.59268268  0.60843760  0.13590875     0.92600
O274        O  0.45504758  0.54043412  0.09898299    -0.75300
O275        O  0.57847771  0.58528712  0.14468121    -0.82800
Mg276      Mg  0.44680288  0.52246900  0.05114570     1.58000
C277        C  0.57781318  0.65424363  0.01502051     0.92600
O278        O  0.43411998  0.50321409  0.00526118    -0.81100
H279        H  0.54436747  0.57024130  0.97588391    -0.06400
C280        C  0.51683190  0.62174535  0.09219641     0.87500
O281        O  0.56038692  0.51134380  0.06822157    -0.75600
O282        O  0.45822871  0.56490335  0.03187049    -0.88400
O283        O  0.55035922  0.64923509  0.00846154    -0.81200
C284        C  0.46340478  0.63340105  0.96936081     0.92700
C285        C  0.43119578  0.51077726  0.97776504     0.92500
Mg286      Mg  0.57470444  0.60019456  0.06253083     1.58000
O287        O  0.59010805  0.61897360  0.10918847    -0.81100
O288        O  0.56497296  0.58140796  0.01513732    -0.75300
O289        O  0.45613094  0.60581708  0.97157941    -0.81200
O290        O  0.43394679  0.47782196  0.07192551    -0.82900
O291        O  0.56388747  0.51648703  0.14132342    -0.81200
C292        C  0.54193364  0.57948710  0.99831678     0.87000
O293        O  0.56197592  0.55838566  0.08206931    -0.88400
O294        O  0.52892962  0.61491176  0.06798368    -0.88500
O295        O  0.51717895  0.60426782  0.11481524    -0.75500
Mg296      Mg  0.47971205  0.56293460  0.98824623     1.58000
O297        O  0.48346521  0.64527351  0.98590522    -0.82900
H298        H  0.51668621  0.48078703  0.02018434    -0.06600
O299        O  0.50338661  0.53501086  0.10684714    -0.88200
H300        H  0.47543068  0.55056865  0.13863013    -0.06400
H301        H  0.59672431  0.53825938  0.06175203    -0.06600
C302        C  0.47800286  0.54201112  0.11593883     0.86900
C303        C  0.50456118  0.50173765  0.02151068     0.87500
C304        C  0.57415390  0.53617674  0.07073446     0.87600
H305        H  0.50481872  0.64273615  0.09386105    -0.06600
O306        O  0.46110979  0.61219207  0.04553014    -0.75600
Mg307      Mg  0.54024418  0.55941954  0.12528442     1.58000
H308        H  0.42451587  0.58583125  0.05316042    -0.06600
C309        C  0.44659876  0.46320592  0.09296048     0.92600
O310        O  0.53887592  0.47623379  0.12584815    -0.82800
C311        C  0.55919258  0.48831338  0.14191989     0.92600
O312        O  0.44213652  0.53522325  0.96767653    -0.82800
Mg313      Mg  0.50684883  0.62931627  0.02776990     1.58200
O314        O  0.47286581  0.46985179  0.10208312    -0.81200
O315        O  0.58949063  0.64336814  0.03885330    -0.82900
C316        C  0.37160686  0.35183014  0.83201511     0.03000
C317        C  0.38662180  0.35772102  0.80488953    -0.13100
C318        C  0.38654124  0.33663042  0.78151856     0.00500
C319        C  0.37125304  0.30944728  0.78542326    -0.11600
C320        C  0.35570008  0.30336675  0.81242905     0.03000
C321        C  0.35633708  0.32459041  0.83591494    -0.11100
H322        H  0.39780516  0.37914845  0.80174125     0.08600
H323        H  0.37052361  0.29366739  0.76682650     0.06100
H324        H  0.34437604  0.32040257  0.85684839     0.06000
C325        C  0.69904625  0.33598319  0.22269219     0.03000
C326        C  0.72740838  0.33660549  0.23655317    -0.13100
C327        C  0.74446701  0.31015033  0.23872459     0.00500
C328        C  0.73290754  0.28336375  0.22687401    -0.11600
C329        C  0.70497683  0.28272026  0.21258081     0.03000
C330        C  0.68822075  0.30909617  0.21038333    -0.11100
H331        H  0.73580601  0.35741421  0.24601468     0.08600
H332        H  0.74514816  0.26257555  0.22967224     0.06100
H333        H  0.66662788  0.30872300  0.19904710     0.06000
C334        C  0.72524676  0.70144139  0.85234904     0.03000
C335        C  0.75133288  0.68589494  0.86055119    -0.13100
C336        C  0.77701991  0.68681405  0.84216025     0.00500
C337        C  0.77603872  0.70225965  0.81475451    -0.11600
C338        C  0.75047626  0.71876402  0.80652841     0.03000
C339        C  0.72492895  0.71822743  0.82551279    -0.11100
H340        H  0.75200094  0.67409217  0.88191164     0.08600
H341        H  0.79608833  0.70283590  0.80076173     0.06100
H342        H  0.70514051  0.73115737  0.81980571     0.06000
O343        O  0.04830505  0.57437502  0.05933863    -0.88400
C344        C  0.03810913  0.61657689  0.97845750     0.87600
Mg345      Mg  0.08844133  0.55264886  0.07317339     1.58100
O346        O  0.00146263  0.54746513  0.98521035    -0.88200
O347        O  0.00052206  0.56360164  0.05443342    -0.75500
C348        C  0.12603053  0.46855027  0.95599644     0.92600
O349        O  0.09816394  0.60884089  0.02013261    -0.75300
O350        O  0.13757884  0.48284696  0.97792713    -0.82800
Mg351      Mg  0.05248740  0.61911502  0.04221368     1.58000
C352        C  0.00474169  0.48440553  0.91931646     0.92600
O353        O  0.00890355  0.63311493  0.06563917    -0.81100
H354        H  0.97097171  0.52123514  0.00551056    -0.06400
C355        C  0.08345964  0.54496683  0.94410216     0.87500
O356        O  0.06904628  0.50699612  0.05901315    -0.75600
O357        O  0.02903866  0.60569790  0.00250588    -0.88400
O358        O  0.99825106  0.51185964  0.92358848    -0.81200
C359        C  0.96022587  0.59942866  0.94035800     0.92700
C360        C  0.98078187  0.63551792  0.06099497     0.92500
Mg361      Mg  0.05473776  0.48893733  0.97094082     1.58000
O362        O  0.09846954  0.47187666  0.94871582    -0.81100
O363        O  0.00915423  0.49965114  0.99292845    -0.75300
O364        O  0.96458415  0.60594340  0.96799076    -0.81200
O365        O  0.07759767  0.63438624  0.08343557    -0.82900
O366        O  0.13986390  0.50013230  0.04762715    -0.81200
C367        C  0.99274457  0.52284700  0.99464152     0.87000
O368        O  0.07779907  0.50310448  0.01059874    -0.88400
O369        O  0.05963664  0.53376334  0.95336062    -0.88500
O370        O  0.10747668  0.54441079  0.95964310    -0.75500
Mg371      Mg  0.98577217  0.58508999  0.00995865     1.58000
O372        O  0.97586401  0.57978115  0.92661255    -0.82900
H373        H  0.02519762  0.55219374  0.09105896    -0.06600
O374        O  0.10684781  0.56124626  0.02905317    -0.88200
H375        H  0.13672957  0.58763422  0.00804671    -0.06400
H376        H  0.05866448  0.47003425  0.03437100    -0.06600
C377        C  0.11502701  0.58587077  0.01903111     0.86900
C378        C  0.02481311  0.56328477  0.06938774     0.87500
C379        C  0.06843885  0.49226902  0.03450713     0.87600
H380        H  0.08364290  0.55630808  0.92255688    -0.06600
O381        O  0.03782328  0.60170724  0.95398683    -0.75600
Mg382      Mg  0.12151620  0.52270939  0.00456247     1.58000
H383        H  0.04749742  0.63897433  0.97847040    -0.06600
C384        C  0.09953719  0.62321652  0.09782163     0.92600
O385        O  0.12987758  0.52763820  0.08825636    -0.82800
C386        C  0.14313202  0.50563716  0.07569202     0.92600
O387        O  0.96855449  0.62401420  0.03775928    -0.82800
Mg388      Mg  0.01867665  0.55574647  0.94063727     1.58200
O389        O  0.10789526  0.59617956  0.09353079    -0.81200
O390        O  0.02857542  0.47299250  0.93022145    -0.82900
C391        C  0.83242954  0.68803065  0.22201359     0.03000
C392        C  0.83660598  0.70543430  0.24793916    -0.13100
C393        C  0.81224505  0.71112862  0.26723977     0.00500
C394        C  0.78365175  0.69944547  0.26016088    -0.11600
C395        C  0.77927346  0.68210522  0.23420357     0.03000
C396        C  0.80403467  0.67609105  0.21542109    -0.11100
H397        H  0.85854919  0.71504931  0.25257989     0.08600
H398        H  0.76433870  0.70532538  0.27390781     0.06100
H399        H  0.80105325  0.66304333  0.19498746     0.06000
C400        C  0.21049086  0.35935426  0.22883827     0.03000
C401        C  0.22410139  0.33106105  0.22968025    -0.13100
C402        C  0.22770513  0.31602337  0.25736425     0.00500
C403        C  0.21727232  0.32953627  0.28401144    -0.11600
C404        C  0.20447392  0.35822599  0.28330724     0.03000
C405        C  0.20079996  0.37281329  0.25564281    -0.11100
H406        H  0.23246398  0.32118031  0.20894499     0.08600
H407        H  0.22033312  0.31840868  0.30550463     0.06100
H408        H  0.19116767  0.39512426  0.25501374     0.06000
C409        C  0.85033036  0.33248102  0.86561858     0.03000
C410        C  0.82517672  0.33269718  0.84677767    -0.13100
C411        C  0.80625535  0.30750494  0.84548048     0.00500
C412        C  0.81269282  0.28230402  0.86327852    -0.11600
C413        C  0.83849156  0.28161835  0.88130110     0.03000
C414        C  0.85716476  0.30693456  0.88243440    -0.11100
H415        H  0.82051095  0.35231400  0.83317398     0.08600
H416        H  0.79843847  0.26257173  0.86206823     0.06100
H417        H  0.87774113  0.30650980  0.89550063     0.06000
O418        O  0.53908388  0.00331281  0.11666520    -0.88400
C419        C  0.49917928  0.99372945  0.03472031     0.87600
Mg420      Mg  0.56182549  0.04346347  0.12876928     1.58100
O421        O  0.56749086  0.95475711  0.04174967    -0.88200
O422        O  0.54965350  0.95558403  0.11098380    -0.75500
C423        C  0.64450089  0.07817479  0.00901940     0.92600
O424        O  0.50616624  0.05365817  0.07568455    -0.75300
O425        O  0.63251887  0.08981673  0.03225732    -0.82800
Mg426      Mg  0.49487885  0.00877826  0.09806574     1.58000
C427        C  0.63005313  0.95774039  0.97367670     0.92600
O428        O  0.47817035  0.96611896  0.12092415    -0.81100
H429        H  0.59300741  0.92415491  0.06236841    -0.06400
C430        C  0.57126020  0.03464025  0.99937784     0.87500
O431        O  0.60735800  0.02276845  0.11523472    -0.75600
O432        O  0.50966801  0.98499498  0.05895572    -0.88400
O433        O  0.60282633  0.95034827  0.97893593    -0.81200
C434        C  0.51104560  0.91844765  0.99542267     0.92700
C435        C  0.47424405  0.93867422  0.11405115     0.92500
Mg436      Mg  0.62690018  0.00673187  0.02688066     1.58000
O437        O  0.64198919  0.05025826  0.00324777    -0.81100
O438        O  0.61575961  0.96154529  0.04934466    -0.75300
O439        O  0.50567610  0.92302378  0.02330201    -0.81200
O440        O  0.47842247  0.03572744  0.13822951    -0.82900
O441        O  0.61442870  0.09274341  0.10056917    -0.81200
C442        C  0.59198061  0.94571885  0.05130054     0.87000
O443        O  0.61270439  0.03015918  0.06653263    -0.88400
O444        O  0.58214035  0.01131072  0.00960862    -0.88500
O445        O  0.57135968  0.05890542  0.01435138    -0.75500
Mg446      Mg  0.52832728  0.94125799  0.06599752     1.58000
O447        O  0.53400794  0.92973873  0.98249191    -0.82900
H448        H  0.56079628  0.97976928  0.14814419    -0.06600
O449        O  0.55431525  0.05923758  0.08365030    -0.88200
H450        H  0.52969605  0.09076574  0.06338577    -0.06400
H451        H  0.64456027  0.01068774  0.09148774    -0.06600
C452        C  0.53016644  0.06903367  0.07416272     0.86900
C453        C  0.54990260  0.97967491  0.12636959     0.87500
C454        C  0.62261545  0.02109140  0.09094501     0.87600
H455        H  0.56044694  0.03410159  0.97756895    -0.06600
O456        O  0.51403806  0.99191831  0.01026326    -0.75600
Mg457      Mg  0.59280963  0.07327137  0.05902053     1.58000
H458        H  0.47711883  0.00390414  0.03447655    -0.06600
C459        C  0.49014782  0.05891352  0.15020640     0.92600
O460        O  0.58713793  0.08536965  0.14208305    -0.82800
C461        C  0.60844347  0.09840581  0.12802649     0.92600
O462        O  0.48777306  0.92622673  0.09212764    -0.82800
Mg463      Mg  0.55956050  0.97130263  0.99705593     1.58200
O464        O  0.51798153  0.06514871  0.14643884    -0.81200
O465        O  0.64221519  0.98064045  0.98577285    -0.82900
C466        C  0.69336687  0.21728678  0.84067317     0.03000
C467        C  0.71106446  0.24324735  0.83858210    -0.13100
C468        C  0.71527548  0.25745258  0.81059518     0.00500
C469        C  0.70113114  0.24571952  0.78496420    -0.11600
C470        C  0.68310566  0.22001390  0.78690555     0.03000
C471        C  0.67918160  0.20592135  0.81488214    -0.11100
H472        H  0.72204115  0.25187756  0.85859777     0.08600
H473        H  0.70547175  0.25557178  0.76303992     0.06100
H474        H  0.66570211  0.18567117  0.81649095     0.06000
C475        C  0.35704377  0.23064860  0.20244198     0.03000
C476        C  0.33087774  0.23174331  0.22015712    -0.13100
C477        C  0.31363296  0.25809239  0.22138612     0.00500
C478        C  0.32296208  0.28323592  0.20468749    -0.11600
C479        C  0.34965222  0.28262654  0.18780116     0.03000
C480        C  0.36632865  0.25603669  0.18628215    -0.11100
H481        H  0.32407692  0.21210453  0.23288078     0.08600
H482        H  0.31004551  0.30379714  0.20554430     0.06100
H483        H  0.38700206  0.25529683  0.17323161     0.06000
C484        C  0.33976895  0.86208898  0.86253583     0.03000
C485        C  0.33970138  0.84752357  0.83451828    -0.13100
C486        C  0.31356628  0.84710423  0.81677036     0.00500
C487        C  0.28771419  0.86203588  0.82713463    -0.11600
C488        C  0.28760623  0.87696015  0.85499357     0.03000
C489        C  0.31369863  0.87665073  0.87275711    -0.11100
H490        H  0.35988601  0.83617705  0.82687332     0.08600
H491        H  0.26714943  0.86111351  0.81408909     0.06100
H492        H  0.31390252  0.88809596  0.89434551     0.06000
O493        O  0.55940907  0.52567423  0.49350040    -0.88400
C494        C  0.48029032  0.52464368  0.44747062     0.87600
Mg495      Mg  0.57563838  0.48958118  0.51943978     1.58100
O496        O  0.48197908  0.56655715  0.51399542    -0.88200
O497        O  0.55102320  0.57349446  0.49931688    -0.75500
C498        C  0.45912581  0.44534250  0.60015297     0.92600
O499        O  0.52759107  0.46915218  0.46103237    -0.75300
O500        O  0.48206585  0.43486547  0.58669902    -0.82800
Mg501      Mg  0.54539431  0.51558580  0.44824989     1.58000
C502        C  0.41456926  0.56294774  0.57626187     0.92600
O503        O  0.56473922  0.55905446  0.43123790    -0.81100
H504        H  0.49902958  0.59976610  0.53908157    -0.06400
C505        C  0.44711741  0.48243316  0.52062475     0.87500
O506        O  0.55727952  0.51027099  0.56291982    -0.75600
O507        O  0.50321085  0.53632941  0.45816321    -0.88400
O508        O  0.41961342  0.56866243  0.54852923    -0.81200
C509        C  0.43581638  0.60049646  0.45803158     0.92700
C510        C  0.55847266  0.58619856  0.42566734     0.92500
Mg511      Mg  0.46861521  0.51629827  0.57630702     1.58000
O512        O  0.44977797  0.47204763  0.59587946    -0.81100
O513        O  0.48755410  0.56255205  0.56287219    -0.75300
O514        O  0.46346378  0.59696873  0.45110742    -0.81200
O515        O  0.58997243  0.49399999  0.43717083    -0.82900
O516        O  0.55231248  0.43735159  0.57325561    -0.81200
C517        C  0.48965341  0.57737174  0.53848876     0.87000
O518        O  0.51031566  0.49593793  0.56549276    -0.88400
O519        O  0.45356985  0.50736429  0.53111518    -0.88500
O520        O  0.46471515  0.46012203  0.52301595    -0.75500
Mg521      Mg  0.50633405  0.58166440  0.47525076     1.58000
O522        O  0.42356431  0.58593289  0.47945059    -0.82900
H523        H  0.58891193  0.55285631  0.51384909    -0.06600
O524        O  0.53445073  0.46598810  0.50979870    -0.88200
H525        H  0.51889003  0.43161361  0.48536320    -0.06400
H526        H  0.52996759  0.51938488  0.59847617    -0.06600
C527        C  0.52712750  0.45445312  0.48552191     0.86900
C528        C  0.56758787  0.55063560  0.50236033     0.87500
C529        C  0.53235523  0.50851892  0.57678358     0.87600
H530        H  0.42634641  0.47978522  0.50824540    -0.06600
O531        O  0.45535834  0.52453392  0.46168503    -0.75600
Mg532      Mg  0.50929320  0.45119379  0.54770587     1.58000
H533        H  0.48170953  0.51349639  0.42583992    -0.06600
C534        C  0.60626313  0.47584145  0.45190103     0.92600
O535        O  0.59283799  0.45221284  0.54771596    -0.82800
C536        C  0.58072389  0.43740623  0.56901316     0.92600
O537        O  0.53419767  0.59803470  0.43529600    -0.82800
Mg538      Mg  0.43913379  0.54592789  0.50617445     1.58200
O539        O  0.60095789  0.46974899  0.47944248    -0.81200
O540        O  0.42539520  0.53972736  0.58876892    -0.82900
C541        C  0.72260392  0.72816144  0.37801863     0.03000
C542        C  0.71401892  0.75532723  0.39105441    -0.13100
C543        C  0.73171352  0.78104711  0.38720964     0.00500
C544        C  0.75894222  0.77904747  0.37128002    -0.11600
C545        C  0.76788867  0.75167829  0.35839815     0.03000
C546        C  0.74949030  0.72624550  0.36180708    -0.11100
H547        H  0.69276552  0.75672317  0.40309143     0.08600
H548        H  0.77202252  0.79919578  0.36718946     0.06100
H549        H  0.75555305  0.70516588  0.35123358     0.06000
C550        C  0.36848362  0.72005205  0.72705831     0.03000
C551        C  0.35095233  0.74603139  0.72903681    -0.13100
C552        C  0.35001915  0.76257833  0.75605737     0.00500
C553        C  0.36672334  0.75265448  0.78095145    -0.11600
C554        C  0.38433840  0.72667248  0.77919093     0.03000
C555        C  0.38531613  0.71064112  0.75195805    -0.11100
H556        H  0.33757113  0.75280577  0.70983171     0.08600
H557        H  0.36467026  0.76420108  0.80236667     0.06100
H558        H  0.39849255  0.69027624  0.75031644     0.06000
C559        C  0.74037363  0.35357839  0.70221452     0.03000
C560        C  0.73785252  0.33970138  0.73033547    -0.13100
C561        C  0.76374002  0.33331118  0.74710537     0.00500
C562        C  0.79222612  0.34038777  0.73515006    -0.11600
C563        C  0.79498337  0.35409684  0.70672896     0.03000
C564        C  0.76872911  0.36120371  0.69074340    -0.11100
H565        H  0.71574518  0.33411235  0.73915740     0.08600
H566        H  0.81227731  0.33451406  0.74764614     0.06100
H567        H  0.77014644  0.37312084  0.66949685     0.06000
O568        O  0.55280309  0.07750398  0.55935349    -0.88400
C569        C  0.54550531  0.11766327  0.47761458     0.87600
Mg570      Mg  0.59222389  0.05509583  0.57395864     1.58100
O571        O  0.50827927  0.04909566  0.48587033    -0.88200
O572        O  0.50494694  0.06743019  0.55442312    -0.75500
C573        C  0.63179535  0.96806429  0.46135112     0.92600
O574        O  0.60416645  0.11044983  0.52086702    -0.75300
O575        O  0.64248088  0.98286211  0.48328231    -0.82800
Mg576      Mg  0.55819184  0.12188272  0.54177593     1.58000
C577        C  0.51151237  0.98384877  0.42145321     0.92600
O578        O  0.51410964  0.13764891  0.56378238    -0.81100
H579        H  0.47702396  0.02362882  0.50601909    -0.06400
C580        C  0.59055561  0.04455549  0.44532179     0.87500
O581        O  0.57188721  0.00976987  0.56044771    -0.75600
O582        O  0.53555564  0.10804580  0.50188129    -0.88400
O583        O  0.50483314  0.01135526  0.42536534    -0.81200
C584        C  0.46886553  0.10047070  0.43858680     0.92700
C585        C  0.48610387  0.14019291  0.55817357     0.92500
Mg586      Mg  0.56074926  0.98954701  0.47276765     1.58000
O587        O  0.60503843  0.97189202  0.45177346    -0.81100
O588        O  0.51477895  0.00112784  0.49370513    -0.75300
O589        O  0.47313717  0.10857538  0.46578691    -0.81200
O590        O  0.58243041  0.13651084  0.58352701    -0.82900
O591        O  0.64190057  0.00112280  0.55065654    -0.81200
C592        C  0.49893893  0.02473201  0.49538207     0.87000
O593        O  0.58241685  0.00453641  0.51250075    -0.88400
O594        O  0.56650687  0.03384331  0.45458269    -0.88500
O595        O  0.61428560  0.04429925  0.46129648    -0.75500
Mg596      Mg  0.49205205  0.08786678  0.50891022     1.58000
O597        O  0.48340744  0.07902669  0.42655973    -0.82900
H598        H  0.52902394  0.05708593  0.59177562    -0.06600
O599        O  0.61130018  0.06269051  0.53007927    -0.88200
H600        H  0.64235198  0.08814203  0.50959463    -0.06400
H601        H  0.56159018  0.97249535  0.53627986    -0.06600
C602        C  0.62038193  0.08701644  0.52011521     0.86900
C603        C  0.52904281  0.06728685  0.56965914     0.87500
C604        C  0.57191604  0.99448240  0.53629168     0.87600
H605        H  0.59119104  0.05516963  0.42341024    -0.06600
O606        O  0.54540786  0.10181372  0.45373496    -0.75600
Mg607      Mg  0.62626602  0.02354723  0.50723664     1.58000
H608        H  0.55543044  0.13982116  0.47692432    -0.06600
C609        C  0.60413705  0.12476895  0.59784312     0.92600
O610        O  0.63267373  0.02954629  0.59056800    -0.82800
C611        C  0.64471543  0.00654821  0.57863861     0.92600
O612        O  0.47433697  0.12768414  0.53523851    -0.82800
Mg613      Mg  0.52581746  0.05561845  0.44131393     1.58200
O614        O  0.61285960  0.09802836  0.59303468    -0.81200
O615        O  0.53568001  0.97290847  0.43196486    -0.82900
C616        C  0.35323102  0.83782502  0.36230285     0.03000
C617        C  0.32579127  0.84015358  0.34708957    -0.13100
C618        C  0.30579450  0.81566758  0.34633257     0.00500
C619        C  0.31320906  0.78930252  0.36193045    -0.11600
C620        C  0.34089823  0.78661382  0.37674155     0.03000
C621        C  0.36093753  0.81097595  0.37659517    -0.11100
H622        H  0.32041983  0.86079548  0.33543059     0.08600
H623        H  0.29801083  0.77025666  0.36156323     0.06100
H624        H  0.38276667  0.80903202  0.38725405     0.06000
C625        C  0.33969531  0.19144747  0.72007338     0.03000
C626        C  0.31221356  0.17777887  0.71304210    -0.13100
C627        C  0.28742875  0.18085611  0.73228282     0.00500
C628        C  0.29041672  0.19696149  0.75912466    -0.11600
C629        C  0.31757982  0.21138293  0.76627999     0.03000
C630        C  0.34229983  0.20867069  0.74648036    -0.11100
H631        H  0.30978107  0.16592856  0.69180768     0.08600
H632        H  0.27083238  0.19958899  0.77353347     0.06100
H633        H  0.36332746  0.22003864  0.75134770     0.06000
C634        C  0.71423971  0.86218746  0.73427767     0.03000
C635        C  0.70365742  0.87328105  0.76189854    -0.13100
C636        C  0.70344398  0.85517450  0.78776879     0.00500
C637        C  0.71401061  0.82561139  0.78568106    -0.11600
C638        C  0.72527257  0.81444442  0.75826442     0.03000
C639        C  0.72494640  0.83278173  0.73252499    -0.11100
H640        H  0.69553170  0.89611481  0.76316860     0.08600
H641        H  0.71436073  0.81166792  0.80567847     0.06100
H642        H  0.73332612  0.82437662  0.71113818     0.06000
C643        C  0.29327566  0.25260928  0.83455698     0.80100
N644        N  0.31359663  0.27542050  0.83501529    -0.78200
C645        C  0.33641981  0.27646314  0.81455825     0.82600
N646        N  0.33850818  0.25471959  0.79318796    -0.78100
C647        C  0.31835174  0.23188644  0.79240843     0.82700
N648        N  0.29576613  0.23108116  0.81309253    -0.79800
C649        C  0.66105966  0.98495797  0.59817865    -0.20000
C650        C  0.67533440  0.95887110  0.58660912     0.36200
C651        C  0.68764879  0.93789327  0.60674186    -0.25900
C652        C  0.68593990  0.94228675  0.63798908     0.02700
C653        C  0.67195581  0.96822396  0.64952702     0.27500
C654        C  0.66011072  0.98939880  0.62957019    -0.25100
N655        N  0.67694228  0.95338710  0.55466262    -0.82500
H656        H  0.69848291  0.91789787  0.59808073     0.13300
C657        C  0.69772955  0.91928894  0.65887101     0.02700
N658        N  0.66907673  0.97252882  0.68158483    -0.81000
H659        H  0.64908316  0.00901250  0.63881443     0.18100
C660        C  0.71924392  0.92779730  0.68036282    -0.25900
C661        C  0.72641990  0.90886293  0.70452289     0.36200
C662        C  0.71188634  0.88077334  0.70687069    -0.19900
C663        C  0.69273399  0.87106217  0.68371938    -0.25100
C664        C  0.68534401  0.89013338  0.65971338     0.27500
H665        H  0.72935978  0.94990903  0.67902895     0.13300
N666        N  0.74853723  0.91793655  0.72636799    -0.82400
H667        H  0.68213496  0.84919404  0.68535357     0.18100
N668        N  0.66434165  0.88051808  0.63703586    -0.81000
H669        H  0.75864039  0.93815684  0.71990237     0.33800
H670        H  0.73747219  0.92236637  0.74668699     0.38300
H671        H  0.65765689  0.85832283  0.64081091     0.33700
H672        H  0.64501964  0.89368533  0.63916657     0.30400
H673        H  0.65832702  0.99281188  0.68640600     0.33700
H674        H  0.65510302  0.95550739  0.68990871     0.30400
H675        H  0.69115198  0.96966992  0.54531922     0.38300
H676        H  0.68697056  0.93265702  0.55019162     0.33800
C677        C  0.36483701  0.18862920  0.69849767    -0.20000
C678        C  0.37709612  0.16028685  0.69207793     0.36200
C679        C  0.39831406  0.15728890  0.66890426    -0.25900
C680        C  0.40713971  0.18213199  0.65166745     0.02700
C681        C  0.39522080  0.21067437  0.65813967     0.27500
C682        C  0.37419387  0.21372311  0.68177990    -0.25100
N683        N  0.36769002  0.13446837  0.70889455    -0.82500
H684        H  0.40751686  0.13534067  0.66390009     0.13300
C685        C  0.42854181  0.17723627  0.62663952     0.02700
N686        N  0.40407063  0.23614911  0.64034037    -0.81000
H687        H  0.36429804  0.23541841  0.68651099     0.18100
C688        C  0.41757578  0.17409634  0.59722400    -0.25900
C689        C  0.43635787  0.16391068  0.57375642     0.36200
C690        C  0.46667617  0.15646111  0.58013985    -0.19900
C691        C  0.47794158  0.16187421  0.60931908    -0.25100
C692        C  0.45911259  0.17204288  0.63262340     0.27500
H693        H  0.39398224  0.17840142  0.59288778     0.13300
N694        N  0.42448945  0.16036334  0.54382087    -0.82400
H695        H  0.50116397  0.15667553  0.61449338     0.18100
N696        N  0.47050813  0.17586196  0.66271042    -0.81000
H697        H  0.40173875  0.16628985  0.54320538     0.33800
H698        H  0.43586298  0.17550994  0.52981921     0.38300
H699        H  0.49344853  0.17074167  0.66350953     0.33700
H700        H  0.46857130  0.19857595  0.66824828     0.30400
H701        H  0.39298366  0.25543968  0.64783654     0.33700
H702        H  0.42705088  0.23977502  0.64389869     0.30400
H703        H  0.35869109  0.11885513  0.69376113     0.38300
H704        H  0.38674337  0.12496360  0.71877768     0.33800
C705        C  0.48970965  0.96412326  0.40551295    -0.20000
C706        C  0.49310272  0.93259672  0.40454170     0.36200
C707        C  0.47014271  0.91476601  0.39240772    -0.25900
C708        C  0.44360308  0.92757816  0.38139648     0.02700
C709        C  0.44032257  0.95896235  0.38147841     0.27500
C710        C  0.46343936  0.97691830  0.39337539    -0.25100
N711        N  0.51920822  0.91833789  0.41679056    -0.82500
H712        H  0.47255611  0.89058105  0.39273034     0.13300
C713        C  0.41860960  0.90746149  0.37250935     0.02700
N714        N  0.41329498  0.97237959  0.37001311    -0.81000
H715        H  0.46045370  0.00101596  0.39385852     0.18100
C716        C  0.39147440  0.90867170  0.38876973    -0.25900
C717        C  0.36908574  0.88681847  0.38458543     0.36200
C718        C  0.37410084  0.86344885  0.36382138    -0.19900
C719        C  0.40051254  0.86303478  0.34643575    -0.25100
C720        C  0.42277082  0.88511537  0.35036338     0.27500
H721        H  0.38840950  0.92583547  0.40582631     0.13300
N722        N  0.34174306  0.88760730  0.40202561    -0.82400
H723        H  0.40401489  0.84504494  0.33035145     0.18100
N724        N  0.44985973  0.88465747  0.33252972    -0.81000
H725        H  0.34147440  0.90641038  0.41613987     0.33800
H726        H  0.34155417  0.86881025  0.41610804     0.38300
H727        H  0.44942904  0.86674954  0.31729000     0.33700
H728        H  0.45029076  0.90428259  0.31963793     0.30400
H729        H  0.41426068  0.99573220  0.37200718     0.33700
H730        H  0.41220884  0.96757516  0.34694960     0.30400
H731        H  0.51217941  0.90364679  0.43380681     0.38300
H732        H  0.52929342  0.90565562  0.39968925     0.33800
C733        C  0.65038678  0.94407329  0.44839750    -0.20000
C734        C  0.65142238  0.93833945  0.41718376     0.36200
C735        C  0.66723191  0.91317859  0.40664845    -0.25900
C736        C  0.68126401  0.89342611  0.42685303     0.02700
C737        C  0.68077682  0.89967011  0.45804890     0.27500
C738        C  0.66583727  0.92529530  0.46839903    -0.25100
N739        N  0.63638691  0.95795925  0.39645093    -0.82500
H740        H  0.66807280  0.90852075  0.38266053     0.13300
C741        C  0.69470392  0.86532356  0.41533339     0.02700
N742        N  0.69437799  0.87937134  0.47917019    -0.81000
H743        H  0.66481794  0.92973271  0.49242663     0.18100
C744        C  0.72458097  0.85821434  0.42266038    -0.25900
C745        C  0.73715218  0.83062167  0.41413461     0.36200
C746        C  0.71980643  0.81039790  0.39693295    -0.19900
C747        C  0.69024024  0.81793167  0.38890146    -0.25100
C748        C  0.67728782  0.84489802  0.39841612     0.27500
H749        H  0.73786104  0.87398865  0.43566948     0.13300
N750        N  0.76707048  0.82276065  0.42346825    -0.82400
H751        H  0.67703108  0.80245541  0.37545368     0.18100
N752        N  0.64633504  0.85131571  0.39156565    -0.81000
H753        H  0.77669268  0.84010715  0.43610008     0.33800
H754        H  0.76528246  0.80427082  0.43786253     0.38300
H755        H  0.63680135  0.83400422  0.37881542     0.33700
H756        H  0.63446788  0.85198998  0.41197149     0.30400
H757        H  0.69209308  0.88737323  0.50124226     0.33700
H758        H  0.68248413  0.85912202  0.47817028     0.30400
H759        H  0.64687200  0.97894543  0.39778628     0.38300
H760        H  0.63924165  0.95044127  0.37427558     0.33800
C761        C  0.36749222  0.70084817  0.70003843    -0.20000
C762        C  0.38759181  0.70527663  0.67586568     0.36200
C763        C  0.38949945  0.68341262  0.65306923    -0.25900
C764        C  0.37124372  0.65755756  0.65382089     0.02700
C765        C  0.34949061  0.65449591  0.67697875     0.27500
C766        C  0.34817716  0.67598545  0.70010273    -0.25100
N767        N  0.40643490  0.73153319  0.67500841    -0.82500
H768        H  0.40636233  0.68584873  0.63552806     0.13300
C769        C  0.37754148  0.63250313  0.63245720     0.02700
N770        N  0.32933195  0.62920946  0.67726918    -0.81000
H771        H  0.33258256  0.67297624  0.71872700     0.18100
C772        C  0.38205594  0.60362154  0.64414072    -0.25900
C773        C  0.39152399  0.57993780  0.62571167     0.36200
C774        C  0.39790393  0.58519819  0.59492556    -0.19900
C775        C  0.39172998  0.61372079  0.58282527    -0.25100
C776        C  0.38139549  0.63732775  0.60120429     0.27500
H777        H  0.37933728  0.59953167  0.66808654     0.13300
N778        N  0.39525391  0.55077766  0.63869743    -0.82400
H779        H  0.39605538  0.61805429  0.55915901     0.18100
N780        N  0.37543331  0.66630274  0.58838820    -0.81000
H781        H  0.37458681  0.54407414  0.64787578     0.33800
H782        H  0.41078489  0.55247545  0.65629429     0.38300
H783        H  0.37959735  0.66619265  0.56515388     0.33700
H784        H  0.35247062  0.67060371  0.59120126     0.30400
H785        H  0.31492242  0.63018210  0.69594993     0.33700
H786        H  0.31577579  0.63070430  0.65810138     0.30400
H787        H  0.42126269  0.73038402  0.69322851     0.38300
H788        H  0.41966613  0.73163143  0.65544629     0.33800
C789        C  0.41836233  0.62400873  0.44217053    -0.20000
C790        C  0.38660345  0.62602540  0.44453864     0.36200
C791        C  0.37190502  0.65157677  0.43337379    -0.25900
C792        C  0.38825105  0.67476829  0.41972258     0.02700
C793        C  0.41952500  0.67210757  0.41570688     0.27500
C794        C  0.43428994  0.64676396  0.42692161    -0.25100
N795        N  0.36944085  0.60244345  0.45855922    -0.82500
H796        H  0.34772059  0.65373296  0.43580077     0.13300
C797        C  0.37274974  0.70231930  0.41025073     0.02700
N798        N  0.43620102  0.69562023  0.40095638    -0.81000
H799        H  0.45855312  0.64546679  0.42477376     0.18100
C800        C  0.37530938  0.72804239  0.42824375    -0.25900
C801        C  0.36374197  0.75562507  0.41849436     0.36200
C802        C  0.35002095  0.75745435  0.38984882    -0.19900
C803        C  0.34634547  0.73124409  0.37254205    -0.25100
C804        C  0.35756787  0.70363566  0.38252741     0.27500
H805        H  0.38681517  0.72661357  0.44971727     0.13300
N806        N  0.36599526  0.78174086  0.43742157    -0.82400
H807        H  0.33580847  0.73252375  0.35057553     0.18100
N808        N  0.35432101  0.67710060  0.36435998    -0.81000
H809        H  0.37676278  0.77653553  0.45768623     0.33800
H810        H  0.34411146  0.78833909  0.44302633     0.38300
H811        H  0.34226446  0.68183675  0.34472384     0.33700
H812        H  0.37583773  0.67046671  0.35748463     0.30400
H813        H  0.45912640  0.69042948  0.40014622     0.33700
H814        H  0.42885482  0.69665556  0.37859324     0.30400
H815        H  0.37173514  0.58328776  0.44512746     0.38300
H816        H  0.34651591  0.60770682  0.45882026     0.33800
C817        C  0.58104720  0.60460040  0.40922848    -0.20000
C818        C  0.60849053  0.59205479  0.39853124     0.36200
C819        C  0.63188135  0.61117599  0.38945019    -0.25900
C820        C  0.62820534  0.64220513  0.39011997     0.02700
C821        C  0.60025406  0.65474958  0.39801802     0.27500
C822        C  0.57681976  0.63577829  0.40741461    -0.25100
N823        N  0.61305197  0.56012503  0.39790906    -0.82500
H824        H  0.65349540  0.60194487  0.38291092     0.13300
C825        C  0.65476439  0.66139600  0.38612528     0.02700
N826        N  0.59618012  0.68673300  0.39740182    -0.81000
H827        H  0.55580397  0.64559158  0.41491365     0.18100
C828        C  0.66154487  0.67302592  0.35758662    -0.25900
C829        C  0.68500341  0.69386865  0.35401872     0.36200
C830        C  0.70172905  0.70271920  0.37953732    -0.19900
C831        C  0.69581925  0.68990966  0.40773340    -0.25100
C832        C  0.67240069  0.66918800  0.41130601     0.27500
H833        H  0.64787560  0.66661362  0.33841411     0.13300
N834        N  0.69122638  0.70686986  0.32497400    -0.82400
H835        H  0.70883488  0.69696851  0.42714308     0.18100
N836        N  0.66603131  0.65640849  0.44042909    -0.81000
H837        H  0.67703179  0.69769838  0.30858104     0.33800
H838        H  0.68615957  0.72972101  0.32624977     0.38300
H839        H  0.68146402  0.66416440  0.45642300     0.33700
H840        H  0.64488817  0.66407045  0.44735259     0.30400
H841        H  0.57413990  0.69230404  0.40352306     0.33700
H842        H  0.61021238  0.69616786  0.41377064     0.30400
H843        H  0.59820082  0.55115849  0.38200146     0.38300
H844        H  0.63476168  0.55490524  0.39039816     0.33800
C845        C  0.71334416  0.36099134  0.68483053    -0.20000
C846        C  0.70593110  0.34481979  0.65859076     0.36200
C847        C  0.68179085  0.35449507  0.64080243    -0.25900
C848        C  0.66552387  0.38032944  0.64858146     0.02700
C849        C  0.67265444  0.39610257  0.67526600     0.27500
C850        C  0.69630561  0.38593523  0.69341501    -0.25100
N851        N  0.72344517  0.31916266  0.64983711    -0.82500
H852        H  0.67615642  0.34243313  0.62033507     0.13300
C853        C  0.64288947  0.39217679  0.62734662     0.02700
N854        N  0.65667245  0.42301347  0.68313684    -0.81000
H855        H  0.70242438  0.39827286  0.71357803     0.18100
C856        C  0.61327194  0.39702504  0.63724784    -0.25900
C857        C  0.59217337  0.41140773  0.61869010     0.36200
C858        C  0.60080589  0.42022387  0.58922639    -0.19900
C859        C  0.63016761  0.41402074  0.57905988    -0.25100
C860        C  0.65138662  0.40055981  0.59789708     0.27500
H861        H  0.60695538  0.39046953  0.65994481     0.13300
N862        N  0.56255109  0.41789639  0.63009349    -0.82400
H863        H  0.63697652  0.42046290  0.55647626     0.18100
N864        N  0.68181074  0.39624081  0.58755661    -0.81000
H865        H  0.55979548  0.40925919  0.65185615     0.33800
H866        H  0.56076196  0.44119558  0.63206358     0.38300
H867        H  0.68430146  0.40348009  0.56525296     0.33700
H868        H  0.69579796  0.40989007  0.60066425     0.30400
H869        H  0.66469218  0.43183552  0.70345669     0.33700
H870        H  0.66131198  0.43900206  0.66650599     0.30400
H871        H  0.72055848  0.30278063  0.66646432     0.38300
H872        H  0.71526724  0.31000036  0.62973346     0.33800
C873        C  0.61786208  0.14167861  0.62274103    -0.20000
C874        C  0.64833685  0.13801600  0.63077142     0.36200
C875        C  0.65898309  0.15151168  0.65730753    -0.25900
C876        C  0.63954502  0.16782578  0.67617611     0.02700
C877        C  0.60917193  0.17169849  0.66786994     0.27500
C878        C  0.59886720  0.15916388  0.64087795    -0.25100
N879        N  0.66819211  0.12051005  0.61212651    -0.82500
H880        H  0.68242596  0.14906387  0.66349714     0.13300
C881        C  0.65106993  0.18072849  0.70464645     0.02700
N882        N  0.58865239  0.18741708  0.68741581    -0.81000
H883        H  0.57534949  0.16155483  0.63491093     0.18100
C884        C  0.64655415  0.21130902  0.71040411    -0.25900
C885        C  0.65570600  0.22419516  0.73760288     0.36200
C886        C  0.67077001  0.20655471  0.75909378    -0.19900
C887        C  0.67560395  0.17598476  0.75327757    -0.25100
C888        C  0.66557336  0.16275788  0.72637503     0.27500
H889        H  0.63552627  0.22525006  0.69377906     0.13300
N890        N  0.64912611  0.25507693  0.74357537    -0.82400
H891        H  0.68746763  0.16246225  0.76966185     0.18100
N892        N  0.66982654  0.13121381  0.72115192    -0.81000
H893        H  0.62580158  0.25791027  0.74236513     0.33800
H894        H  0.65902133  0.26801343  0.72653641     0.38300
H895        H  0.68106450  0.12134700  0.73928271     0.33700
H896        H  0.64852935  0.12121621  0.72019703     0.30400
H897        H  0.56715251  0.18831006  0.67792503     0.33700
H898        H  0.58664177  0.17502628  0.70733778     0.30400
H899        H  0.67018652  0.13143954  0.59135547     0.38300
H900        H  0.68977948  0.11982515  0.62143306     0.33800
C901        C  0.48867753  0.90142161  0.97738019    -0.20000
C902        C  0.49595337  0.88798473  0.94939478     0.36200
C903        C  0.47272778  0.87645871  0.93119145    -0.25900
C904        C  0.44238743  0.87876932  0.93998122     0.02700
C905        C  0.43534763  0.89073604  0.96868128     0.27500
C906        C  0.45858334  0.90133592  0.98721522    -0.25100
N907        N  0.52671184  0.88657622  0.93929377    -0.82500
H908        H  0.47820901  0.86651189  0.90955293     0.13300
C909        C  0.41807848  0.87102020  0.91819971     0.02700
N910        N  0.40453004  0.89350045  0.97835970    -0.81000
H911        H  0.45281020  0.91145890  0.00869971     0.18100
C912        C  0.39409281  0.85251242  0.92746912    -0.25900
C913        C  0.36848112  0.84872374  0.90932817     0.36200
C914        C  0.36736068  0.86283618  0.88095905    -0.19900
C915        C  0.39212676  0.87942831  0.87064834    -0.25100
C916        C  0.41729650  0.88416436  0.88915880     0.27500
H917        H  0.39492280  0.84185316  0.94940240     0.13300
N918        N  0.34333715  0.83116891  0.91977521    -0.82400
H919        H  0.39107367  0.89006883  0.84870470     0.18100
N920        N  0.44138522  0.90334344  0.87907261    -0.81000
H921        H  0.34758100  0.82257525  0.94127765     0.33800
H922        H  0.34113910  0.81275252  0.90531871     0.38300
H923        H  0.43740021  0.91096043  0.85714736     0.33700
H924        H  0.44157227  0.92230297  0.89297269     0.30400
H925        H  0.40327345  0.90245962  0.00014027     0.33700
H926        H  0.39402844  0.90887144  0.96407548     0.30400
H927        H  0.53836023  0.87274906  0.95425806     0.38300
H928        H  0.52810271  0.87639593  0.91806996     0.33800
C929        C  0.64707720  0.94001028  0.95132156    -0.20000
C930        C  0.64152908  0.90900204  0.94752457     0.36200
C931        C  0.65381056  0.89409551  0.92248461    -0.25900
C932        C  0.67141501  0.90961225  0.90141647     0.02700
C933        C  0.67853750  0.94003031  0.90608591     0.27500
C934        C  0.66648335  0.95495559  0.93124787    -0.25100
N935        N  0.62286959  0.89300458  0.96868367    -0.82500
H936        H  0.64869344  0.87061327  0.91868580     0.13300
C937        C  0.67951588  0.89463962  0.87294883     0.02700
N938        N  0.69678719  0.95586854  0.88446774    -0.81000
H939        H  0.67078357  0.97871671  0.93416649     0.18100
C940        C  0.66099745  0.89899323  0.84787260    -0.25900
C941        C  0.66763588  0.88538270  0.82012284     0.36200
C942        C  0.69391125  0.86775992  0.81730331    -0.19900
C943        C  0.71206512  0.86296676  0.84280871    -0.25100
C944        C  0.70496902  0.87613632  0.87072068     0.27500
H945        H  0.64114496  0.91291189  0.85011263     0.13300
N946        N  0.64764583  0.88911189  0.79496333    -0.82400
H947        H  0.73224531  0.84952013  0.84078759     0.18100
N948        N  0.72344932  0.87093248  0.89674143    -0.81000
H949        H  0.62947120  0.90280271  0.80083694     0.33800
H950        H  0.63870771  0.86803200  0.78971769     0.38300
H951        H  0.74115281  0.85646777  0.89137237     0.33700
H952        H  0.73321297  0.89141105  0.90287913     0.30400
H953        H  0.69949458  0.97826612  0.89092913     0.33700
H954        H  0.71822724  0.94625149  0.88470338     0.30400
H955        H  0.63383756  0.89332601  0.98951644     0.38300
H956        H  0.62080556  0.87047650  0.96242366     0.33800
C957        C  0.65951058  0.09808927  0.98687894    -0.20000
C958        C  0.67093070  0.12661097  0.99513068     0.36200
C959        C  0.67910893  0.14709661  0.97244523    -0.25900
C960        C  0.67642392  0.13940014  0.94196353     0.02700
C961        C  0.66710220  0.11034454  0.93370215     0.27500
C962        C  0.65891426  0.08987605  0.95627982    -0.25100
N963        N  0.67367100  0.13483099  0.02638329    -0.82500
H964        H  0.68682757  0.16938702  0.97846291     0.13300
C965        C  0.68159875  0.16238033  0.91867579     0.02700
N966        N  0.66539955  0.10200432  0.90238800    -0.81000
H967        H  0.65038298  0.06801698  0.94979574     0.18100
C968        C  0.71032147  0.16553299  0.90595521    -0.25900
C969        C  0.71515647  0.18481040  0.88135507     0.36200
C970        C  0.69058246  0.20080711  0.86933670    -0.19900
C971        C  0.66212705  0.19847312  0.88288213    -0.25100
C972        C  0.65739553  0.17946786  0.90763513     0.27500
H973        H  0.72872655  0.15225899  0.91469903     0.13300
N974        N  0.74441233  0.18687945  0.86750047    -0.82400
H975        H  0.64341631  0.21088158  0.87351551     0.18100
N976        N  0.62809709  0.17710154  0.92136977    -0.81000
H977        H  0.75952625  0.17241533  0.87811558     0.33800
H978        H  0.75258611  0.20856056  0.87122260     0.38300
H979        H  0.61292494  0.19155825  0.91082694     0.33700
H980        H  0.62006528  0.15535604  0.91770767     0.30400
H981        H  0.65853815  0.07966056  0.90018183     0.33700
H982        H  0.64868427  0.11500167  0.89230948     0.30400
H983        H  0.68953405  0.12053656  0.03608416     0.38300
H984        H  0.68222111  0.15660938  0.02848912     0.33800
C985        C  0.37495443  0.20297516  0.20056710    -0.20000
C986        C  0.39568287  0.19514165  0.22326114     0.36200
C987        C  0.41383526  0.16977624  0.21948006    -0.25900
C988        C  0.41182655  0.15219590  0.19324432     0.02700
C989        C  0.39083626  0.15991380  0.17066955     0.27500
C990        C  0.37249995  0.18518598  0.17467320    -0.25100
N991        N  0.39924435  0.21304247  0.24987467    -0.82500
H992        H  0.42996382  0.16403938  0.23681381     0.13300
C993        C  0.43289139  0.12684816  0.18839450     0.02700
N994        N  0.38883530  0.14250928  0.14340858    -0.81000
H995        H  0.35669528  0.19149516  0.15723249     0.18100
C996        C  0.42123188  0.09808144  0.18313102    -0.25900
C997        C  0.43976339  0.07466648  0.17284503     0.36200
C998        C  0.47073092  0.08033615  0.16731604    -0.19900
C999        C  0.48273279  0.10847119  0.17545860    -0.25100
C1000       C  0.46413870  0.13180009  0.18578077     0.27500
H1001       H  0.39728232  0.09424276  0.18596886     0.13300
N1002       N  0.42695815  0.04555199  0.16719834    -0.82400
H1003       H  0.50648561  0.11297448  0.17211406     0.18100
N1004       N  0.47667763  0.16088111  0.19220416    -0.81000
H1005       H  0.40383888  0.04548675  0.17174575     0.33800
H1006       H  0.43668968  0.03060365  0.18245491     0.38300
H1007       H  0.50006435  0.16072089  0.18943477     0.33700
H1008       H  0.46822422  0.17591135  0.17627448     0.30400
H1009       H  0.37218141  0.15106353  0.12922813     0.33700
H1010       H  0.40928291  0.14481264  0.13186802     0.30400
H1011       H  0.40504304  0.23484644  0.24331423     0.38300
H1012       H  0.37858193  0.21384061  0.26117058     0.33800
C1013       C  0.87044641  0.35847173  0.86753508    -0.20000
C1014       C  0.89260863  0.36353292  0.84542064     0.36200
C1015       C  0.91448160  0.38570838  0.85018523    -0.25900
C1016       C  0.91432262  0.40271400  0.87679446     0.02700
C1017       C  0.89156881  0.39820488  0.89861149     0.27500
C1018       C  0.86971623  0.37604321  0.89369422    -0.25100
N1019       N  0.89354756  0.34540722  0.81874020    -0.82500
H1020       H  0.93204897  0.38916376  0.83350794     0.13300
C1021       C  0.93905505  0.42391863  0.88274335     0.02700
N1022       N  0.89137288  0.41551299  0.92601151    -0.81000
H1023       H  0.85270234  0.37166937  0.91073645     0.18100
C1024       C  0.93285596  0.45460314  0.88356197    -0.25900
C1025       C  0.95461461  0.47528012  0.89329764     0.36200
C1026       C  0.98313294  0.46474326  0.90297471    -0.19900
C1027       C  0.98973545  0.43399390  0.90014122    -0.25100
C1028       C  0.96788694  0.41345386  0.89031774     0.27500
H1029       H  0.91059161  0.46230166  0.87737982     0.13300
N1030       N  0.94732654  0.50667016  0.89430380    -0.82400
H1031       H  0.01152353  0.42562861  0.90702219     0.18100
N1032       N  0.97442252  0.38189552  0.88916763    -0.81000
H1033       H  0.92507686  0.51027910  0.88761517     0.33800
H1034       H  0.96094568  0.51751130  0.87838934     0.38300
H1035       H  0.99675042  0.37789786  0.89533440     0.33700
H1036       H  0.96091051  0.37123506  0.90530106     0.30400
H1037       H  0.87301817  0.40950386  0.93957274     0.33700
H1038       H  0.91073816  0.41000034  0.93812569     0.30400
H1039       H  0.89207260  0.35961775  0.80005925     0.38300
H1040       H  0.91444543  0.33470210  0.81791381     0.33800
C1041       C  0.85690276  0.68469029  0.19998143    -0.20000
C1042       C  0.86001574  0.70532496  0.17615086     0.36200
C1043       C  0.88183497  0.70021595  0.15381256    -0.25900
C1044       C  0.90035305  0.67485793  0.15502198     0.02700
C1045       C  0.89761028  0.65453920  0.17928740     0.27500
C1046       C  0.87585443  0.65975949  0.20170240    -0.25100
N1047       N  0.84037135  0.73082651  0.17435851    -0.82500
H1048       H  0.88410582  0.71569631  0.13510577     0.13300
C1049       C  0.92128479  0.66873943  0.12982455     0.02700
N1050       N  0.91636202  0.62834190  0.18056314    -0.81000
H1051       H  0.87306236  0.64398660  0.22009388     0.18100
C1052       C  0.95222742  0.66758745  0.13542724    -0.25900
C1053       C  0.97257145  0.65871441  0.11283854     0.36200
C1054       C  0.96146725  0.65045612  0.08397534    -0.19900
C1055       C  0.93050784  0.65347548  0.07809518    -0.25100
C1056       C  0.91030210  0.66231794  0.10077067     0.27500
H1057       H  0.96041538  0.67301090  0.15779292     0.13300
N1058       N  0.00417296  0.65709413  0.11961803    -0.82400
H1059       H  0.92173212  0.64765125  0.05607530     0.18100
N1060       N  0.87853523  0.66369762  0.09475547    -0.81000
H1061       H  0.00815749  0.66243945  0.14223491     0.33800
H1062       H  0.01506686  0.67360833  0.10685361     0.38300
H1063       H  0.87414496  0.65840535  0.07220562     0.33700
H1064       H  0.86797311  0.64717603  0.10778577     0.30400
H1065       H  0.91153266  0.61578163  0.19989926     0.33700
H1066       H  0.91093795  0.61478720  0.16208690     0.30400
H1067       H  0.84486087  0.74458085  0.19293630     0.38300
H1068       H  0.84525811  0.74353001  0.15513300     0.33800
C1069       C  0.20789231  0.37635163  0.20048532    -0.20000
C1070       C  0.18393361  0.37106498  0.18046006     0.36200
C1071       C  0.17877574  0.39144576  0.15686708    -0.25900
C1072       C  0.19717082  0.41688173  0.15308605     0.02700
C1073       C  0.22222339  0.42106727  0.17212923     0.27500
C1074       C  0.22722833  0.40080307  0.19578774    -0.25100
N1075       N  0.16392395  0.34612955  0.18533148    -0.82500
H1076       H  0.15940064  0.38838318  0.14238594     0.13300
C1077       C  0.18768849  0.44064154  0.13170439     0.02700
N1078       N  0.24185511  0.44641040  0.16789567    -0.81000
H1079       H  0.24558750  0.40467682  0.21137498     0.18100
C1080       C  0.18166356  0.46939322  0.14300885    -0.25900
C1081       C  0.16912994  0.49174214  0.12468508     0.36200
C1082       C  0.16147296  0.48488054  0.09444444    -0.19900
C1083       C  0.16923302  0.45653451  0.08272285    -0.25100
C1084       C  0.18241426  0.43444019  0.10101139     0.27500
H1085       H  0.18593667  0.47416180  0.16659173     0.13300
N1086       N  0.16371289  0.52111936  0.13694744    -0.82400
H1087       H  0.16405519  0.45112771  0.05947673     0.18100
N1088       N  0.18994761  0.40555208  0.08874697    -0.81000
H1089       H  0.17012170  0.52216702  0.15960405     0.33800
H1090       H  0.17763167  0.53616729  0.12533508     0.38300
H1091       H  0.18458670  0.40453130  0.06581695     0.33700
H1092       H  0.21330493  0.40313951  0.09022782     0.30400
H1093       H  0.25901907  0.44639989  0.18398299     0.33700
H1094       H  0.25226219  0.44397245  0.14684665     0.30400
H1095       H  0.17636356  0.32649276  0.18223996     0.38300
H1096       H  0.14694832  0.34585918  0.16904846     0.33800
C1097       C  0.80574905  0.67405564  0.85294985    -0.20000
C1098       C  0.83190074  0.69207877  0.85534347     0.36200
C1099       C  0.85831972  0.67969260  0.86730204    -0.25900
C1100       C  0.85888787  0.64992729  0.87729318     0.02700
C1101       C  0.83302691  0.63174174  0.87430202     0.27500
C1102       C  0.80662909  0.64403787  0.86224125    -0.25100
N1103       N  0.83120338  0.72313455  0.84664152    -0.82500
H1104       H  0.87820188  0.69358033  0.86995563     0.13300
C1105       C  0.88580158  0.63862297  0.89315041     0.02700
N1106       N  0.83368334  0.60097019  0.88391971    -0.81000
H1107       H  0.78658562  0.63026761  0.86024715     0.18100
C1108       C  0.88295781  0.63086183  0.92361160    -0.25900
C1109       C  0.90713912  0.61850123  0.93947893     0.36200
C1110       C  0.93494506  0.61399769  0.92453627    -0.19900
C1111       C  0.93799945  0.62237378  0.89412552    -0.25100
C1112       C  0.91367673  0.63497649  0.87831546     0.27500
H1113       H  0.86150584  0.63401799  0.93489628     0.13300
N1114       N  0.90322829  0.60962684  0.97044572    -0.82400
H1115       H  0.95935845  0.61904670  0.88273981     0.18100
N1116       N  0.91701739  0.64380613  0.84730204    -0.81000
H1117       H  0.88157231  0.61485889  0.97809619     0.33800
H1118       H  0.90506712  0.58627270  0.97135208     0.38300
H1119       H  0.93899214  0.63983666  0.83979644     0.33700
H1120       H  0.90288608  0.63013132  0.83438473     0.30400
H1121       H  0.81280627  0.59069731  0.88034058     0.33700
H1122       H  0.84922438  0.58971803  0.87025831     0.30400
H1123       H  0.81621265  0.73414925  0.86109653     0.38300
H1124       H  0.85226970  0.73316668  0.84977756     0.33800
C1125       C  0.62571319  0.12258341  0.14259465    -0.20000
C1126       C  0.62993982  0.12412984  0.17410115     0.36200
C1127       C  0.64446838  0.14931713  0.18641708    -0.25900
C1128       C  0.65479842  0.17256619  0.16774069     0.02700
C1129       C  0.65128655  0.17062941  0.13628868     0.27500
C1130       C  0.63706164  0.14552752  0.12403371    -0.25100
N1131       N  0.61963433  0.10025299  0.19333125    -0.82500
H1132       H  0.64757470  0.15101987  0.21060007     0.13300
C1133       C  0.66811343  0.19965092  0.18116812     0.02700
N1134       N  0.66142985  0.19459776  0.11702545    -0.81000
H1135       H  0.63377342  0.14451879  0.09983552     0.18100
C1136       C  0.69772821  0.20746985  0.17353670    -0.25900
C1137       C  0.71008499  0.23480323  0.18298626     0.36200
C1138       C  0.69266566  0.25409671  0.20128098    -0.19900
C1139       C  0.66317909  0.24590880  0.20934426    -0.25100
C1140       C  0.65055273  0.21897325  0.19910029     0.27500
H1141       H  0.71084550  0.19255558  0.15936626     0.13300
N1142       N  0.73987715  0.24337644  0.17347285    -0.82400
H1143       H  0.64992990  0.26068080  0.22353391     0.18100
N1144       N  0.61984588  0.21141731  0.20624425    -0.81000
H1145       H  0.74957418  0.22660479  0.16013734     0.33800
H1146       H  0.73784382  0.26232555  0.15976516     0.38300
H1147       H  0.61010376  0.22804712  0.21972371     0.33700
H1148       H  0.60776273  0.21110350  0.18603794     0.30400
H1149       H  0.65732774  0.18951746  0.09436843     0.33700
H1150       H  0.64858518  0.21356032  0.12214071     0.30400
H1151       H  0.63195208  0.08107503  0.18774667     0.38300
H1152       H  0.62443341  0.10506967  0.21590780     0.33800
C1153       C  0.39933317  0.34484231  0.75189633    -0.20000
C1154       C  0.42872149  0.35662925  0.74939756     0.36200
C1155       C  0.43774319  0.37003007  0.72223465    -0.25900
C1156       C  0.41798538  0.37150502  0.69770090     0.02700
C1157       C  0.38955789  0.35759857  0.69935377     0.27500
C1158       C  0.38050941  0.34420867  0.72652470    -0.25100
N1159       N  0.44882359  0.35570286  0.77473112    -0.82500
H1160       H  0.45976797  0.38043040  0.72049463     0.13300
C1161       C  0.42611865  0.39052347  0.67179468     0.02700
N1162       N  0.36955317  0.35839061  0.67393769    -0.81000
H1163       H  0.35797981  0.33500896  0.72850512     0.18100
C1164       C  0.43262083  0.37735660  0.64385691    -0.25900
C1165       C  0.44183939  0.39509585  0.61934062     0.36200
C1166       C  0.44440453  0.42647252  0.62309492    -0.19900
C1167       C  0.43635991  0.43965108  0.65067635    -0.25100
C1168       C  0.42737297  0.42191695  0.67517918     0.27500
H1169       H  0.43108029  0.35321326  0.64143041     0.13300
N1170       N  0.44891303  0.38144365  0.59079415    -0.82400
H1171       H  0.43848037  0.46370595  0.65355415     0.18100
N1172       N  0.42013160  0.43550065  0.70373296    -0.81000
H1173       H  0.44598518  0.35819397  0.59189066     0.33800
H1174       H  0.43337904  0.38936352  0.57504508     0.38300
H1175       H  0.42254465  0.45880499  0.70257539     0.33700
H1176       H  0.39738398  0.43123476  0.70816057     0.30400
H1177       H  0.34952458  0.34699613  0.67886517     0.33700
H1178       H  0.36375397  0.38077971  0.67017084     0.30400
H1179       H  0.45307603  0.33315208  0.77948789     0.38300
H1180       H  0.46953827  0.36547415  0.76917381     0.33800
C1181       C  0.61435577  0.62200004  0.15707113    -0.20000
C1182       C  0.61895958  0.65320610  0.15879508     0.36200
C1183       C  0.64259882  0.66439416  0.17657650    -0.25900
C1184       C  0.66198564  0.64488226  0.19198550     0.02700
C1185       C  0.65611205  0.61379892  0.19181855     0.27500
C1186       C  0.63201203  0.60274107  0.17472307    -0.25100
N1187       N  0.60002344  0.67326911  0.14211050    -0.82500
H1188       H  0.64700035  0.68830566  0.17715531     0.13300
C1189       C  0.69084093  0.65659308  0.20387096     0.02700
N1190       N  0.67557642  0.59346915  0.20761660    -0.81000
H1191       H  0.62823495  0.57873455  0.17362400     0.18100
C1192       C  0.69862599  0.65217828  0.23421337    -0.25900
C1193       C  0.72740960  0.66009394  0.24484923     0.36200
C1194       C  0.74845867  0.67323245  0.22473745    -0.19900
C1195       C  0.74005960  0.67852143  0.19473162    -0.25100
C1196       C  0.71176324  0.66991505  0.18397258     0.27500
H1197       H  0.68248415  0.64178551  0.24935131     0.13300
N1198       N  0.73551537  0.65418318  0.27564857    -0.82400
H1199       H  0.75585340  0.68917503  0.17941746     0.18100
N1200       N  0.70445047  0.67391636  0.15263988    -0.81000
H1201       H  0.71742515  0.64464065  0.28739660     0.33800
H1202       H  0.75272142  0.63823427  0.27542807     0.38300
H1203       H  0.72222436  0.68424506  0.14109121     0.33700
H1204       H  0.70183186  0.65262339  0.14307001     0.30400
H1205       H  0.66798642  0.57136630  0.20529778     0.33700
H1206       H  0.69677679  0.59444162  0.19732960     0.30400
H1207       H  0.57816315  0.67110075  0.15067676     0.38300
H1208       H  0.60652665  0.69553235  0.14576473     0.33800
C1209       C  0.59680029  0.67099556  0.99280292    -0.20000
C1210       C  0.62751229  0.67738950  0.99805616     0.36200
C1211       C  0.64594786  0.68720407  0.97418614    -0.25900
C1212       C  0.63432977  0.69132099  0.94505897     0.02700
C1213       C  0.60317493  0.68758100  0.94030652     0.27500
C1214       C  0.58478899  0.67741920  0.96411484    -0.25100
N1215       N  0.64037476  0.67327079  0.02733714    -0.82500
H1216       H  0.66980849  0.69031478  0.97818304     0.13300
C1217       C  0.65543022  0.69672229  0.91939583     0.02700
N1218       N  0.59049985  0.69337691  0.91108678    -0.81000
H1219       H  0.56116464  0.67327336  0.95971493     0.18100
C1220       C  0.65561219  0.67646030  0.89505214    -0.25900
C1221       C  0.67742069  0.67848053  0.87205848     0.36200
C1222       C  0.69932061  0.70133065  0.87333729    -0.19900
C1223       C  0.69860539  0.72222695  0.89699611    -0.25100
C1224       C  0.67676709  0.72025269  0.92000623     0.27500
H1225       H  0.63943944  0.65822396  0.89466051     0.13300
N1226       N  0.67783218  0.65709152  0.84776230    -0.82400
H1227       H  0.71567608  0.73961894  0.89790622     0.18100
N1228       N  0.67642489  0.74172009  0.94421584    -0.81000
H1229       H  0.65992841  0.64195428  0.84991133     0.33800
H1230       H  0.69757775  0.64454078  0.84964973     0.38300
H1231       H  0.69369766  0.75746933  0.94142686     0.33700
H1232       H  0.65615526  0.75349810  0.94290529     0.30400
H1233       H  0.56729583  0.68936518  0.91122474     0.33700
H1234       H  0.59341922  0.71621479  0.90656514     0.30400
H1235       H  0.65799254  0.65788104  0.02541456     0.38300
H1236       H  0.64945631  0.69377997  0.03433888     0.33800
C1237       C  0.43084060  0.43723331  0.10676466    -0.20000
C1238       C  0.44684249  0.41440628  0.12213922     0.36200
C1239       C  0.43099940  0.39001579  0.13430560    -0.25900
C1240       C  0.39979039  0.38771050  0.13125391     0.02700
C1241       C  0.38366094  0.41028113  0.11626851     0.27500
C1242       C  0.39937713  0.43482474  0.10402144    -0.25100
N1243       N  0.47908649  0.41565833  0.12498338    -0.82500
H1244       H  0.44305430  0.37246009  0.14604036     0.13300
C1245       C  0.38454022  0.36151509  0.14454928     0.02700
N1246       N  0.35142455  0.40843072  0.11408290    -0.81000
H1247       H  0.38696180  0.45222232  0.09246527     0.18100
C1248       C  0.37604299  0.36265399  0.17493470    -0.25900
C1249       C  0.36454765  0.33715868  0.18951337     0.36200
C1250       C  0.36093126  0.31022877  0.17301534    -0.19900
C1251       C  0.36919639  0.30930653  0.14242738    -0.25100
C1252       C  0.38116947  0.33473831  0.12803421     0.27500
H1253       H  0.37936815  0.38325419  0.18751342     0.13300
N1254       N  0.35753676  0.33821169  0.22119949    -0.82400
H1255       H  0.36654406  0.28860458  0.12987181     0.18100
N1256       N  0.39086176  0.33328008  0.09708474    -0.81000
H1257       H  0.36149525  0.35966419  0.22990600     0.33800
H1258       H  0.37234621  0.32375424  0.23223937     0.38300
H1259       H  0.38738659  0.31175688  0.08835824     0.33700
H1260       H  0.37725164  0.34771167  0.08458797     0.30400
H1261       H  0.34292186  0.42715584  0.10281969     0.33700
H1262       H  0.34614084  0.38978666  0.10079387     0.30400
H1263       H  0.48827221  0.41310352  0.10338460     0.38300
H1264       H  0.48701195  0.39766614  0.13778593     0.33800
C1265       C  0.68027642  0.36314213  0.22039500    -0.20000
C1266       C  0.65016325  0.36275373  0.23063576     0.36200
C1267       C  0.63083360  0.38610034  0.22242080    -0.25900
C1268       C  0.64105114  0.40961749  0.20410941     0.02700
C1269       C  0.67168696  0.41122294  0.19576271     0.27500
C1270       C  0.69118459  0.38798982  0.20431969    -0.25100
N1271       N  0.63911580  0.33796931  0.24824962    -0.82500
H1272       H  0.60730176  0.38520300  0.22892438     0.13300
C1273       C  0.61863623  0.42969817  0.19027281     0.02700
N1274       N  0.68243267  0.43552827  0.17731328    -0.81000
H1275       H  0.71436147  0.38818662  0.19660143     0.18100
C1276       C  0.61856978  0.46035502  0.19716750    -0.25900
C1277       C  0.59841356  0.47999648  0.18285682     0.36200
C1278       C  0.57849747  0.46862535  0.16065457    -0.19900
C1279       C  0.57800629  0.43761649  0.15485063    -0.25100
C1280       C  0.59791195  0.41811740  0.16927557     0.27500
H1281       H  0.63435208  0.46891439  0.21368399     0.13300
N1282       N  0.59820095  0.51126461  0.19080744    -0.82400
H1283       H  0.56273547  0.42851970  0.13815243     0.18100
N1284       N  0.59772134  0.38662767  0.16213348    -0.81000
H1285       H  0.61455033  0.51589339  0.20709277     0.33800
H1286       H  0.57737117  0.51581675  0.20085576     0.38300
H1287       H  0.58089131  0.38165695  0.14645020     0.33700
H1288       H  0.61825392  0.38156589  0.15173312     0.30400
H1289       H  0.70552786  0.43337891  0.17324603     0.33700
H1290       H  0.67182742  0.43388149  0.15634888     0.30400
H1291       H  0.65085855  0.33796550  0.26864984     0.38300
H1292       H  0.61637511  0.34091676  0.25362534     0.33800
C1293       C  0.39870210  0.71452024  0.80680371    -0.20000
C1294       C  0.41446290  0.73317817  0.82718009     0.36200
C1295       C  0.42405211  0.72141267  0.85490792    -0.25900
C1296       C  0.41967628  0.69102559  0.86202684     0.02700
C1297       C  0.40564342  0.67197163  0.84079846     0.27500
C1298       C  0.39479888  0.68403610  0.81374655    -0.25100
N1299       N  0.42077353  0.76390934  0.81958585    -0.82500
H1300       H  0.43495418  0.73604378  0.87108201     0.13300
C1301       C  0.43011307  0.67922412  0.89155578     0.02700
N1302       N  0.40247543  0.64042283  0.84679213    -0.81000
H1303       H  0.38272869  0.66960574  0.79823535     0.18100
C1304       C  0.41013750  0.66240277  0.90955363    -0.25900
C1305       C  0.42000866  0.64807905  0.93593588     0.36200
C1306       C  0.45022188  0.65148942  0.94493872    -0.19900
C1307       C  0.46953892  0.67015167  0.92824968    -0.25100
C1308       C  0.46004154  0.68355010  0.90132185     0.27500
H1309       H  0.38693116  0.65981180  0.90253131     0.13300
N1310       N  0.39965310  0.62986852  0.95337613    -0.82400
H1311       H  0.49279943  0.67266092  0.93516038     0.18100
N1312       N  0.48106503  0.70035540  0.88323388    -0.81000
H1313       H  0.37830166  0.62952015  0.94351607     0.33800
H1314       H  0.39718043  0.64003739  0.97450464     0.38300
H1315       H  0.50209526  0.70148435  0.89371945     0.33700
H1316       H  0.48421397  0.68863685  0.86302978     0.30400
H1317       H  0.39151799  0.62961260  0.82897299     0.33700
H1318       H  0.42410801  0.63131688  0.84788311     0.30400
H1319       H  0.43500352  0.76386352  0.80074364     0.38300
H1320       H  0.43259128  0.77450167  0.83697735     0.33800
C1321       C  0.41568362  0.48986096  0.95693114    -0.20000
C1322       C  0.39595979  0.46723973  0.96775130     0.36200
C1323       C  0.38507254  0.44541815  0.94772562    -0.25900
C1324       C  0.39334976  0.44574316  0.91725185     0.02700
C1325       C  0.41192117  0.46891946  0.90608338     0.27500
C1326       C  0.42266246  0.49094439  0.92600154    -0.25100
N1327       N  0.38731683  0.46623085  0.99903547    -0.82500
H1328       H  0.37051386  0.42766254  0.95598005     0.13300
C1329       C  0.38419219  0.42054049  0.89765717     0.02700
N1330       N  0.42065614  0.46933939  0.87480547    -0.81000
H1331       H  0.43774779  0.50815270  0.91755247     0.18100
C1332       C  0.36638754  0.42620496  0.87226409    -0.25900
C1333       C  0.36032900  0.40338936  0.85132248     0.36200
C1334       C  0.37232702  0.37455250  0.85607944    -0.19900
C1335       C  0.38848000  0.36840830  0.88239323    -0.25100
C1336       C  0.39482633  0.39127007  0.90319196     0.27500
H1337       H  0.35798658  0.44866425  0.86840238     0.13300
N1338       N  0.34278070  0.40944390  0.82483737    -0.82400
H1339       H  0.39765434  0.34617201  0.88577030     0.18100
N1340       N  0.41309656  0.38523609  0.92919545    -0.81000
H1341       H  0.33580176  0.43181862  0.82462293     0.33800
H1342       H  0.32326657  0.39632917  0.82612738     0.38300
H1343       H  0.41901571  0.36257371  0.92995368     0.33700
H1344       H  0.43316411  0.39733281  0.92677115     0.30400
H1345       H  0.43433916  0.48791369  0.87021822     0.33700
H1346       H  0.43377803  0.45031883  0.87073183     0.30400
H1347       H  0.37467433  0.48546526  0.00357015     0.38300
H1348       H  0.37320260  0.44789081  0.00327775     0.33800
C1349       C  0.44476968  0.11513349  0.42125499    -0.20000
C1350       C  0.43770955  0.14570076  0.42540522     0.36200
C1351       C  0.41199718  0.15752144  0.41149148    -0.25900
C1352       C  0.39296254  0.13927311  0.39406224     0.02700
C1353       C  0.40054825  0.10892858  0.38924394     0.27500
C1354       C  0.42669286  0.09734072  0.40245118    -0.25100
N1355       N  0.45649065  0.16448941  0.44389221    -0.82500
H1356       H  0.40641868  0.18095716  0.41467698     0.13300
C1357       C  0.36461124  0.15195018  0.38195457     0.02700
N1358       N  0.38106557  0.08971117  0.37197185    -0.85000
H1359       H  0.43201317  0.07381350  0.39946576     0.18100
C1360       C  0.35855807  0.14985094  0.35097131    -0.25900
C1361       C  0.33158486  0.16091945  0.33888263     0.36200
C1362       C  0.31077937  0.17558514  0.35803911    -0.19900
C1363       C  0.31699638  0.17769524  0.38905509    -0.25100
C1364       C  0.34336525  0.16556561  0.40128053     0.27500
H1365       H  0.37487594  0.13928208  0.33620044     0.13300
N1366       N  0.32509145  0.15691260  0.30737853    -0.82400
H1367       H  0.30129549  0.18908978  0.40386579     0.18100
N1368       N  0.34855315  0.16680140  0.43327625    -0.81000
H1369       H  0.34273240  0.14576018  0.29649650     0.33800
H1370       H  0.30619106  0.14296791  0.30579848     0.38300
H1371       H  0.33078470  0.17762946  0.44428441     0.33700
H1372       H  0.34877438  0.14475653  0.44129345     0.30400
H1373       H  0.38992594  0.06805333  0.37054974     0.33700
H1374       H  0.36066334  0.08790194  0.38367792     0.30400
H1375       H  0.47759276  0.16588631  0.43345052     0.38300
H1376       H  0.44798645  0.18631295  0.44481960     0.33800
C1377       C  0.92147305  0.98073726  0.46563916    -0.20000
C1378       C  0.92741747  0.97970389  0.43422634     0.36200
C1379       C  0.91408889  0.95714511  0.41665119    -0.25900
C1380       C  0.89561442  0.93516729  0.42967812     0.02700
C1381       C  0.88924538  0.93619822  0.46074247     0.27500
C1382       C  0.90218220  0.95901075  0.47844259    -0.25100
N1383       N  0.94781900  0.00070654  0.42035026    -0.82500
H1384       H  0.91910915  0.95591067  0.39272849     0.13300
C1385       C  0.88509658  0.91026305  0.41032955     0.02700
N1386       N  0.86990280  0.91396678  0.47412970    -0.81000
H1387       H  0.89739122  0.95960962  0.50241769     0.18100
C1388       C  0.89743577  0.88159549  0.41426953    -0.25900
C1389       C  0.89345288  0.85918625  0.39227415     0.36200
C1390       C  0.87683855  0.86585088  0.36610079    -0.19900
C1391       C  0.86263848  0.89375378  0.36337626    -0.25100
C1392       C  0.86644607  0.91600588  0.38540224     0.27500
H1393       H  0.91167596  0.87732708  0.43358947     0.13300
N1394       N  0.90725287  0.83027879  0.39572900    -0.82400
H1395       H  0.84936344  0.89846503  0.34347176     0.18100
N1396       N  0.85238824  0.94480416  0.38213852    -0.81000
H1397       H  0.91861481  0.82903757  0.41631269     0.33800
H1398       H  0.92353289  0.82803954  0.37879123     0.38300
H1399       H  0.83951109  0.94546151  0.36244760     0.33700
H1400       H  0.83738456  0.94742264  0.40017497     0.30400
H1401       H  0.86755640  0.91781415  0.49729088     0.33700
H1402       H  0.84850878  0.91648691  0.46470733     0.30400
H1403       H  0.96935353  0.99627935  0.42867520     0.38300
H1404       H  0.94893342  0.99726837  0.39703315     0.33800
C1405       C  0.19648390  0.87071867  0.70767845    -0.20000
C1406       C  0.17498499  0.87728839  0.73013988     0.36200
C1407       C  0.15410259  0.90029245  0.72512251    -0.25900
C1408       C  0.15460994  0.91657659  0.69812171     0.02700
C1409       C  0.17686250  0.91071886  0.67615118     0.27500
C1410       C  0.19778458  0.88781823  0.68125215    -0.25100
N1411       N  0.17358076  0.85954559  0.75716333    -0.82500
H1412       H  0.13670060  0.90481477  0.74169676     0.13300
C1413       C  0.12972179  0.93715702  0.69123728     0.02700
N1414       N  0.17723056  0.92718783  0.64826667    -0.81000
H1415       H  0.21418689  0.88224981  0.66398684     0.18100
C1416       C  0.13518337  0.96803855  0.69019163    -0.25900
C1417       C  0.11365513  0.98776226  0.67832490     0.36200
C1418       C  0.08586564  0.97606970  0.66767867    -0.19900
C1419       C  0.07985576  0.94523541  0.67107305    -0.25100
C1420       C  0.10165914  0.92562969  0.68226046     0.27500
H1421       H  0.15695534  0.97653277  0.69719932     0.13300
N1422       N  0.12059311  0.01921059  0.67607877    -0.82400
H1423       H  0.05861019  0.93597322  0.66349114     0.18100
N1424       N  0.09594010  0.89387042  0.68330484    -0.81000
H1425       H  0.14076799  0.02413380  0.68715095     0.33800
H1426       H  0.12441628  0.02398445  0.65329361     0.38300
H1427       H  0.07408429  0.88905039  0.67602670     0.33700
H1428       H  0.11052141  0.88354709  0.66793428     0.30400
H1429       H  0.19510161  0.92017839  0.63458681     0.33700
H1430       H  0.15746552  0.92194830  0.63661524     0.30400
H1431       H  0.19356073  0.86318647  0.76904256     0.38300
H1432       H  0.15606246  0.86688506  0.77112513     0.33800
C1433       C  0.12261945  0.12746993  0.65081527    -0.20000
C1434       C  0.12286157  0.12743174  0.68270960     0.36200
C1435       C  0.14869352  0.13745930  0.69789314    -0.25900
C1436       C  0.17395873  0.14725226  0.68171439     0.02700
C1437       C  0.17342433  0.14839432  0.65006497     0.27500
C1438       C  0.14763073  0.13873818  0.63489678    -0.25100
N1439       N  0.09720877  0.11681152  0.69946804    -0.82500
H1440       H  0.14947630  0.13697617  0.72232416     0.13300
C1441       C  0.20158532  0.15512957  0.69787386     0.02700
N1442       N  0.19955357  0.15826196  0.63352343    -0.81000
H1443       H  0.14773205  0.13860068  0.61044922     0.18100
C1444       C  0.22440652  0.13364724  0.70005638    -0.25900
C1445       C  0.25244323  0.14118090  0.71236029     0.36200
C1446       C  0.25744285  0.17075456  0.72243693    -0.19900
C1447       C  0.23409938  0.19190244  0.72117901    -0.25100
C1448       C  0.20616533  0.18438888  0.70872179     0.27500
H1449       H  0.22047897  0.11119980  0.69149210     0.13300
N1450       N  0.27594256  0.11917658  0.71432535    -0.82400
H1451       H  0.23813663  0.21468313  0.72873537     0.18100
N1452       N  0.18270829  0.20641096  0.70634555    -0.81000
H1453       H  0.26860470  0.09857035  0.70574513     0.33800
H1454       H  0.28053062  0.11581759  0.73719016     0.38300
H1455       H  0.18970681  0.22682802  0.71563181     0.33700
H1456       H  0.17895683  0.21034437  0.68341643     0.30400
H1457       H  0.19571112  0.15707260  0.61029421     0.33700
H1458       H  0.20307361  0.18089813  0.63861457     0.30400
H1459       H  0.07934519  0.13136941  0.69509092     0.38300
H1460       H  0.10128834  0.11799156  0.72266189     0.33800
C1461       C  0.20420510  0.20413678  0.37420789    -0.20000
C1462       C  0.20302505  0.22462171  0.39842042     0.36200
C1463       C  0.18091829  0.22104064  0.42087045    -0.25900
C1464       C  0.16022942  0.19729910  0.41947831     0.02700
C1465       C  0.16044518  0.17773550  0.39440713     0.27500
C1466       C  0.18255368  0.18136008  0.37192456    -0.25100
N1467       N  0.22486469  0.24840004  0.40050091    -0.82500
H1468       H  0.18055845  0.23598889  0.44016135     0.13300
C1469       C  0.14074780  0.19088105  0.44585540     0.02700
N1470       N  0.13897191  0.15360675  0.39254994    -0.81000
H1471       H  0.18378984  0.16561785  0.35331690     0.18100
C1472       C  0.10949725  0.19376917  0.44332424    -0.25900
C1473       C  0.09018166  0.18330788  0.46624218     0.36200
C1474       C  0.10253885  0.16881986  0.49184722    -0.19900
C1475       C  0.13400369  0.16847105  0.49534485    -0.25100
C1476       C  0.15321519  0.17921003  0.47254505     0.27500
H1477       H  0.10017226  0.20339870  0.42296847     0.13300
N1478       N  0.05815592  0.18668012  0.46314269    -0.82400
H1479       H  0.14379929  0.15810833  0.51508545     0.18100
N1480       N  0.18534772  0.17702822  0.47575961    -0.81000
H1481       H  0.05290182  0.19729577  0.44281313     0.33800
H1482       H  0.05087337  0.20095698  0.48039939     0.38300
H1483       H  0.19090342  0.16813674  0.49682874     0.33700
H1484       H  0.19314938  0.16178803  0.45960151     0.30400
H1485       H  0.14207192  0.14139654  0.37263078     0.33700
H1486       H  0.14323665  0.13886768  0.41034905     0.30400
H1487       H  0.24595601  0.23864170  0.40388339     0.38300
H1488       H  0.22059888  0.26177639  0.41941984     0.33800
C1489       C  0.85993080  0.80793378  0.67732901    -0.20000
C1490       C  0.86014481  0.83475955  0.69446862     0.36200
C1491       C  0.87337899  0.86078989  0.68232767    -0.25900
C1492       C  0.88712229  0.86039126  0.65387743     0.02700
C1493       C  0.88739497  0.83368251  0.63686836     0.27500
C1494       C  0.87366914  0.80773212  0.64869229    -0.25100
N1495       N  0.84782434  0.83525754  0.72450835    -0.82500
H1496       H  0.87368841  0.88134223  0.69539832     0.13300
C1497       C  0.90234250  0.88782506  0.64269603     0.02700
N1498       N  0.90202481  0.83297836  0.60789370    -0.81000
H1499       H  0.87370944  0.78723700  0.63553471     0.18100
C1500       C  0.93330732  0.89115891  0.64728786    -0.25900
C1501       C  0.94901032  0.91622969  0.63605942     0.36200
C1502       C  0.93318826  0.93870666  0.61992755    -0.19900
C1503       C  0.90188296  0.93548087  0.61610009    -0.25100
C1504       C  0.88632808  0.91028930  0.62737533     0.27500
H1505       H  0.94536199  0.87375698  0.65924124     0.13300
N1506       N  0.98103454  0.91835302  0.64035641    -0.82400
H1507       H  0.88950652  0.95253579  0.60400431     0.18100
N1508       N  0.85435712  0.90736291  0.62333564    -0.81000
H1509       H  0.98882334  0.90060403  0.65357808     0.33800
H1510       H  0.99125345  0.91594439  0.61920875     0.38300
H1511       H  0.84582745  0.92597228  0.61190366     0.33700
H1512       H  0.85055357  0.88876042  0.60946975     0.30400
H1513       H  0.90060561  0.81152520  0.59843765     0.33700
H1514       H  0.89022727  0.84730859  0.59354694     0.30400
H1515       H  0.86083740  0.82094726  0.73779444     0.38300
H1516       H  0.84974886  0.85666026  0.73397465     0.33800
C1517       C  0.17356791  0.71778026  0.24899529    -0.20000
C1518       C  0.14399664  0.70604880  0.24814853     0.36200
C1519       C  0.13365656  0.69211104  0.22174176    -0.25900
C1520       C  0.15198632  0.69036868  0.19606458     0.02700
C1521       C  0.18073006  0.70375293  0.19610399     0.27500
C1522       C  0.19134514  0.71728742  0.22269711    -0.25100
N1523       N  0.12470274  0.70822232  0.27417341    -0.82500
H1524       H  0.11132942  0.68225133  0.22120893     0.13300
C1525       C  0.14081013  0.67368637  0.16961781     0.02700
N1526       N  0.19893552  0.70346652  0.16922007    -0.81000
H1527       H  0.21394109  0.72649158  0.22322926     0.18100
C1528       C  0.12328826  0.68857657  0.14824806    -0.25900
C1529       C  0.11036681  0.67296711  0.12393627     0.36200
C1530       C  0.11497631  0.64158687  0.12120909    -0.19900
C1531       C  0.13323853  0.62700716  0.14250583    -0.25100
C1532       C  0.14604633  0.64271654  0.16675371     0.27500
H1533       H  0.11939476  0.71242807  0.15082492     0.13300
N1534       N  0.09243077  0.68890631  0.10232413    -0.82400
H1535       H  0.13683417  0.60304190  0.14084358     0.18100
N1536       N  0.16340320  0.62718450  0.18913932    -0.81000
H1537       H  0.09061800  0.71154356  0.10821486     0.33800
H1538       H  0.10386940  0.68823058  0.08167611     0.38300
H1539       H  0.16454200  0.60428497  0.18413649     0.33700
H1540       H  0.18544684  0.63535172  0.18808395     0.30400
H1541       H  0.21929319  0.71471211  0.17291225     0.33700
H1542       H  0.20439467  0.68119999  0.16438722     0.30400
H1543       H  0.12083314  0.73099180  0.27823078     0.38300
H1544       H  0.10372547  0.69846018  0.26983101     0.33800
C1545       C  0.76318545  0.39897321  0.37011689    -0.20000
C1546       C  0.76370476  0.42971120  0.37782706     0.36200
C1547       C  0.73843299  0.44245631  0.39197605    -0.25900
C1548       C  0.71289542  0.42501412  0.39823546     0.02700
C1549       C  0.71240606  0.39437119  0.39075781     0.27500
C1550       C  0.73754818  0.38164441  0.37662428    -0.25100
N1551       N  0.78964552  0.44783065  0.37091173    -0.82500
H1552       H  0.73843925  0.46605740  0.39784272     0.13300
C1553       C  0.68629925  0.43903966  0.41207811     0.02700
N1554       N  0.68629542  0.37641805  0.39750599    -0.81000
H1555       H  0.73736758  0.35796629  0.37107870     0.18100
C1556       C  0.66258637  0.44796671  0.39346482    -0.25900
C1557       C  0.63594569  0.45967975  0.40579188     0.36200
C1558       C  0.63318254  0.46248318  0.43746636    -0.19900
C1559       C  0.65725255  0.45356688  0.45597418    -0.25100
C1560       C  0.68382392  0.44189595  0.44355400     0.27500
H1561       H  0.66479071  0.44536521  0.36924151     0.13300
N1562       N  0.61167336  0.46828932  0.38629008    -0.82400
H1563       H  0.65552062  0.45603565  0.48024090     0.18100
N1564       N  0.70834353  0.43306888  0.46266887    -0.81000
H1565       H  0.61763863  0.46522633  0.36365450     0.33800
H1566       H  0.59362411  0.45378021  0.39055872     0.38300
H1567       H  0.70304913  0.43701569  0.48533020     0.33700
H1568       H  0.71109628  0.40990005  0.46039331     0.30400
H1569       H  0.68944396  0.35433539  0.39022512     0.33700
H1570       H  0.68399319  0.37556165  0.42097368     0.30400
H1571       H  0.79185140  0.44856951  0.34743092     0.38300
H1572       H  0.78637832  0.46991163  0.37815089     0.33800
C1573       C  0.12721099  0.63412694  0.63216853    -0.20000
C1574       C  0.13084331  0.63646133  0.66374127     0.36200
C1575       C  0.14709202  0.66084065  0.67568556    -0.25900
C1576       C  0.15951418  0.68289531  0.65674515     0.02700
C1577       C  0.15590933  0.68053983  0.62527312     0.27500
C1578       C  0.14014246  0.65607868  0.61335695    -0.25100
N1579       N  0.11832897  0.61409755  0.68350010    -0.82500
H1580       H  0.15013024  0.66269636  0.69986278     0.13300
C1581       C  0.17545868  0.70898269  0.66991571     0.02700
N1582       N  0.16773274  0.70336683  0.60556275    -0.81000
H1583       H  0.13723648  0.65467316  0.58913186     0.18100
C1584       C  0.20491034  0.71555921  0.66030688    -0.25900
C1585       C  0.21950543  0.74193743  0.66957356     0.36200
C1586       C  0.20459871  0.76157016  0.68955141    -0.19900
C1587       C  0.17562489  0.75440810  0.70006269    -0.25100
C1588       C  0.16074953  0.72843722  0.69023433     0.27500
H1589       H  0.21615884  0.70044554  0.64480499     0.13300
N1590       N  0.24896761  0.74926687  0.65818009    -0.82400
H1591       H  0.16441682  0.76941871  0.71570183     0.18100
N1592       N  0.13054633  0.72213132  0.70020454    -0.81000
H1593       H  0.25672416  0.73244528  0.64367825     0.33800
H1594       H  0.24700110  0.76872545  0.64520203     0.38300
H1595       H  0.12312104  0.73858217  0.71530225     0.33700
H1596       H  0.11649523  0.72331908  0.68137046     0.30400
H1597       H  0.16334731  0.69814130  0.58299524     0.33700
H1598       H  0.15624486  0.72327555  0.61026589     0.30400
H1599       H  0.12946769  0.59393402  0.67907965     0.38300
H1600       H  0.12270170  0.61945431  0.70604157     0.33800
C1601       C  0.86986548  0.69926344  0.70142542    -0.20000
C1602       C  0.89289071  0.69393663  0.72248803     0.36200
C1603       C  0.91245300  0.66964401  0.71793234    -0.25900
C1604       C  0.90906237  0.65077386  0.69282304     0.02700
C1605       C  0.88489157  0.65522277  0.67273542     0.27500
C1606       C  0.86539470  0.67946107  0.67736207    -0.25100
N1607       N  0.89686466  0.71383863  0.74770049    -0.82500
H1608       H  0.93097227  0.66596739  0.73333197     0.13300
C1609       C  0.93257993  0.62852292  0.68561606     0.02700
N1610       N  0.88106178  0.63587524  0.64703387    -0.81000
H1611       H  0.84748204  0.68377093  0.66141228     0.18100
C1612       C  0.92482494  0.59812840  0.68383910    -0.25900
C1613       C  0.94474873  0.57728172  0.67120833     0.36200
C1614       C  0.97297793  0.58699026  0.66003311    -0.19900
C1615       C  0.98162576  0.61704539  0.66428115    -0.25100
C1616       C  0.96159895  0.63798717  0.67674893     0.27500
H1617       H  0.90267454  0.59078584  0.69110789     0.13300
N1618       N  0.93596791  0.54640957  0.66940529    -0.82400
H1619       H  0.00337667  0.62469644  0.65620863     0.18100
N1620       N  0.97006216  0.66906335  0.67907945    -0.81000
H1621       H  0.93138796  0.53884661  0.69127064     0.33800
H1622       H  0.91606310  0.54504943  0.65694561     0.38300
H1623       H  0.99225503  0.67225627  0.67179429     0.33700
H1624       H  0.95642253  0.68123104  0.66434806     0.30400
H1625       H  0.86208861  0.64210508  0.63465989     0.33700
H1626       H  0.89965045  0.63895244  0.63281766     0.30400
H1627       H  0.87768086  0.71204856  0.76132886     0.38300
H1628       H  0.91505719  0.70696513  0.76088169     0.33800
C1629       C  0.19614830  0.37379605  0.31151358    -0.20000
C1630       C  0.21715593  0.37769357  0.33507573     0.36200
C1631       C  0.20822345  0.39250635  0.36154904    -0.25900
C1632       C  0.17911045  0.40401206  0.36436747     0.02700
C1633       C  0.15845078  0.40117537  0.34051539     0.27500
C1634       C  0.16715651  0.38590653  0.31428192    -0.25100
N1635       N  0.24755431  0.36717339  0.33174289    -0.82500
H1636       H  0.22399465  0.39534562  0.37994346     0.13300
C1637       C  0.17025894  0.41904571  0.39246862     0.02700
N1638       N  0.12895049  0.41420873  0.34293376    -0.81000
H1639       H  0.15126799  0.38328648  0.29595804     0.18100
C1640       C  0.17443552  0.45005589  0.39500821    -0.25900
C1641       C  0.16277800  0.46576718  0.41982455     0.36200
C1642       C  0.14685043  0.44983583  0.44234844    -0.19900
C1643       C  0.14398279  0.41857233  0.44037317    -0.25100
C1644       C  0.15574032  0.40292677  0.41560520     0.27500
H1645       H  0.18572527  0.46210064  0.37698256     0.13300
N1646       N  0.16572344  0.49787372  0.42145259    -0.82400
H1647       H  0.13185999  0.40648486  0.45782257     0.18100
N1648       N  0.15274236  0.37086130  0.41361470    -0.81000
H1649       H  0.17830105  0.50598124  0.40320451     0.33800
H1650       H  0.14419074  0.50705763  0.41941303     0.38300
H1651       H  0.14191420  0.36240968  0.43279766     0.33700
H1652       H  0.13878350  0.36593779  0.39532366     0.30400
H1653       H  0.11676433  0.41065924  0.32310132     0.33700
H1654       H  0.11730492  0.40299061  0.36008105     0.30400
H1655       H  0.25752129  0.37928586  0.31414095     0.38300
H1656       H  0.26007163  0.37188955  0.35112104     0.33800
C1657       C  0.16440023  0.60192607  0.47735469    -0.20000
C1658       C  0.17470645  0.63123716  0.48367981     0.36200
C1659       C  0.18522132  0.64936469  0.46010252    -0.25900
C1660       C  0.18597852  0.63848668  0.43050513     0.02700
C1661       C  0.17880574  0.60831136  0.42450983     0.27500
C1662       C  0.16812867  0.59022669  0.44808553    -0.25100
N1663       N  0.17402186  0.64287257  0.51381360    -0.82500
H1664       H  0.19137521  0.67246877  0.46465881     0.13300
C1665       C  0.18973446  0.65990453  0.40564515     0.02700
N1666       N  0.18156325  0.59648124  0.39440861    -0.81000
H1667       H  0.16100262  0.56750060  0.44309573     0.18100
C1668       C  0.21859703  0.66729274  0.39520991    -0.25900
C1669       C  0.22232344  0.68704875  0.37080666     0.36200
C1670       C  0.19659930  0.69936470  0.35697148    -0.19900
C1671       C  0.16783325  0.69236773  0.36793812    -0.25100
C1672       C  0.16411963  0.67282469  0.39231789     0.27500
H1673       H  0.23807899  0.65733091  0.40585260     0.13300
N1674       N  0.25192125  0.69425055  0.35968912    -0.82400
H1675       H  0.14824141  0.70218618  0.35733746     0.18100
N1676       N  0.13451515  0.66631684  0.40391791    -0.81000
H1677       H  0.26837144  0.68342537  0.37247242     0.33800
H1678       H  0.25366296  0.68577526  0.33775105     0.38300
H1679       H  0.11821108  0.67835769  0.39208625     0.33700
H1680       H  0.12998321  0.64364341  0.40000529     0.30400
H1681       H  0.17578756  0.57373033  0.39398991     0.33700
H1682       H  0.16600585  0.60744339  0.38069768     0.30400
H1683       H  0.16080441  0.66223598  0.51392061     0.38300
H1684       H  0.19596416  0.64900318  0.51973199     0.33800
C1685       C  0.82510145  0.36199531  0.69419772    -0.20000
C1686       C  0.83196320  0.35807914  0.66324706     0.36200
C1687       C  0.85914690  0.36940870  0.65171693    -0.25900
C1688       C  0.88043508  0.38302198  0.67064180     0.02700
C1689       C  0.87475380  0.38459174  0.70195516     0.27500
C1690       C  0.84693802  0.37461911  0.71330661    -0.25100
N1691       N  0.81134030  0.34267324  0.64361510    -0.82500
H1692       H  0.86343487  0.36820104  0.62767138     0.13300
C1693       C  0.90711069  0.39792324  0.65692251     0.02700
N1694       N  0.89708175  0.39674566  0.72199542    -0.81000
H1695       H  0.84204372  0.37745554  0.73709324     0.18100
C1696       C  0.91254908  0.42814609  0.66368525    -0.25900
C1697       C  0.93564434  0.44427563  0.64937629     0.36200
C1698       C  0.95313564  0.43013182  0.62664447    -0.19900
C1699       C  0.94819931  0.39950758  0.62057816    -0.25100
C1700       C  0.92561338  0.38321230  0.63567794     0.27500
H1701       H  0.89813828  0.43951623  0.67978651     0.13300
N1702       N  0.94070564  0.47510917  0.65750149    -0.82400
H1703       H  0.96166600  0.38823811  0.60361855     0.18100
N1704       N  0.92112587  0.35190629  0.62925326    -0.81000
H1705       H  0.92494769  0.48221347  0.67354339     0.33800
H1706       H  0.96170864  0.47633438  0.66802433     0.38300
H1707       H  0.93644104  0.34451872  0.61291294     0.33700
H1708       H  0.92578269  0.33997461  0.64897602     0.30400
H1709       H  0.88935264  0.39638199  0.74430337     0.33700
H1710       H  0.91582499  0.38264024  0.72108060     0.30400
H1711       H  0.80966280  0.32050848  0.65111929     0.38300
H1712       H  0.81978776  0.34179777  0.62158428     0.33800
C1713       C  0.99096664  0.40694544  0.47012394    -0.20000
C1714       C  0.99857806  0.39633449  0.44094102     0.36200
C1715       C  0.97579310  0.38513066  0.42211621    -0.25900
C1716       C  0.94588204  0.38399801  0.43202232     0.02700
C1717       C  0.93855202  0.39241302  0.46174240     0.27500
C1718       C  0.96125285  0.40347370  0.48064896    -0.25100
N1719       N  0.02913067  0.39772756  0.43019832    -0.82500
H1720       H  0.98109896  0.37839208  0.39920925     0.13300
C1721       C  0.92182764  0.37814084  0.41002429     0.02700
N1722       N  0.90782871  0.39109446  0.47205078    -0.81000
H1723       H  0.95520579  0.41127793  0.50301216     0.18100
C1724       C  0.90591695  0.35097566  0.41097903    -0.25900
C1725       C  0.88042623  0.34660137  0.39280692     0.36200
C1726       C  0.87086160  0.37004687  0.37383599    -0.19900
C1727       C  0.88745451  0.39670618  0.37209670    -0.25100
C1728       C  0.91292741  0.40103406  0.39009680     0.27500
H1729       H  0.91289070  0.33363849  0.42655394     0.13300
N1730       N  0.86332929  0.31923300  0.39468554    -0.82400
H1731       H  0.87976251  0.41459334  0.35751089     0.18100
N1732       N  0.92919583  0.42895552  0.38909345    -0.81000
H1733       H  0.87284175  0.30474836  0.41052690     0.33800
H1734       H  0.86501224  0.30841957  0.37381456     0.38300
H1735       H  0.91984191  0.44332398  0.37305226     0.33700
H1736       H  0.92653839  0.43947069  0.41002846     0.30400
H1737       H  0.90625635  0.39796284  0.49456254     0.33700
H1738       H  0.89544250  0.40652175  0.45944159     0.30400
H1739       H  0.04193584  0.38344655  0.44371158     0.38300
H1740       H  0.03068613  0.38943627  0.40816990     0.33800
C1741       C  0.31749617  0.88017095  0.20368253    -0.20000
C1742       C  0.34017948  0.85796874  0.20390507     0.36200
C1743       C  0.36852428  0.86462559  0.19156172    -0.25900
C1744       C  0.37408338  0.89264273  0.17858394     0.02700
C1745       C  0.35135904  0.91457393  0.17776384     0.27500
C1746       C  0.32322805  0.90814460  0.19049942    -0.25100
N1747       N  0.33406317  0.82860842  0.21588845    -0.82500
H1748       H  0.38609970  0.84781760  0.19142502     0.13300
C1749       C  0.40310750  0.89857884  0.16398255     0.02700
N1750       N  0.35678156  0.94292452  0.16323001    -0.81000
H1751       H  0.30566207  0.92495672  0.19013346     0.18100
C1752       C  0.40593145  0.89225776  0.13318863    -0.25900
C1753       C  0.43014781  0.90377877  0.11650897     0.36200
C1754       C  0.45190886  0.92155324  0.13132509    -0.19900
C1755       C  0.45015369  0.92591827  0.16263438    -0.25100
C1756       C  0.42584348  0.91445184  0.17923155     0.27500
H1757       H  0.38814115  0.88001814  0.12183111     0.13300
N1758       N  0.43160165  0.89919036  0.08440004    -0.82400
H1759       H  0.46715959  0.93930313  0.17389324     0.18100
N1760       N  0.42369833  0.91946607  0.21123039    -0.81000
H1761       H  0.41394915  0.88538247  0.07721773     0.33800
H1762       H  0.42839582  0.91997959  0.07401922     0.38300
H1763       H  0.44255173  0.93124597  0.21895884     0.33700
H1764       H  0.40509107  0.93318537  0.21530978     0.30400
H1765       H  0.33742867  0.95620640  0.16385774     0.33700
H1766       H  0.37316113  0.95438313  0.17561695     0.30400
H1767       H  0.31755384  0.81869274  0.20235750     0.38300
H1768       H  0.35314320  0.81501243  0.21428989     0.33800
C1769       C  0.87905227  0.20672557  0.32211830    -0.20000
C1770       C  0.87400856  0.17719997  0.33250128     0.36200
C1771       C  0.88898335  0.16729655  0.35831617    -0.25900
C1772       C  0.90853719  0.18632721  0.37403709     0.02700
C1773       C  0.91328573  0.21593110  0.36411374     0.27500
C1774       C  0.89838442  0.22591527  0.33815990    -0.25100
N1775       N  0.85365940  0.15746616  0.31687961    -0.82500
H1776       H  0.88564976  0.14449657  0.36614203     0.13300
C1777       C  0.92467691  0.17400374  0.40010002     0.02700
N1778       N  0.93329684  0.23552021  0.38030337    -0.81000
H1779       H  0.90223024  0.24854387  0.33009589     0.18100
C1780       C  0.95581895  0.16963068  0.39790130    -0.25900
C1781       C  0.97120259  0.15372526  0.42027189     0.36200
C1782       C  0.95488110  0.14203025  0.44493919    -0.19900
C1783       C  0.92396273  0.14720780  0.44763265    -0.25100
C1784       C  0.90869115  0.16355151  0.42551860     0.27500
H1785       H  0.96784915  0.17764009  0.37816181     0.13300
N1786       N  0.00307916  0.14865841  0.41770982    -0.82400
H1787       H  0.91184324  0.13862219  0.46707008     0.18100
N1788       N  0.87700278  0.16935737  0.42845040    -0.81000
H1789       H  0.01166961  0.15889510  0.39827526     0.33800
H1790       H  0.00637693  0.12559557  0.41505892     0.38300
H1791       H  0.86862358  0.16014043  0.44848110     0.33700
H1792       H  0.87429594  0.19258316  0.43020293     0.30400
H1793       H  0.93438899  0.25653673  0.36990045     0.33700
H1794       H  0.92406056  0.23898361  0.40174857     0.30400
H1795       H  0.83207944  0.16660566  0.31863340     0.38300
H1796       H  0.85281324  0.13645906  0.32732268     0.33800
C1797       C  0.14448913  0.44596685  0.93966555    -0.20000
C1798       C  0.17607696  0.44412698  0.94340798     0.36200
C1799       C  0.19185449  0.41964647  0.93142137    -0.25900
C1800       C  0.17672158  0.39701463  0.91571062     0.02700
C1801       C  0.14567186  0.39953486  0.91018917     0.27500
C1802       C  0.12983470  0.42404656  0.92212080    -0.25100
N1803       N  0.19223208  0.46669845  0.95977544    -0.82500
H1804       H  0.21584563  0.41773387  0.93535263     0.13300
C1805       C  0.19284055  0.36930445  0.90771810     0.02700
N1806       N  0.13023249  0.37652502  0.89349802    -0.81000
H1807       H  0.10571709  0.42521892  0.91880034     0.18100
C1808       C  0.18994613  0.34451780  0.92687425    -0.25900
C1809       C  0.20301433  0.31690992  0.91935181     0.36200
C1810       C  0.21872314  0.31401876  0.89173351    -0.19900
C1811       C  0.22266718  0.33935069  0.87323125    -0.25100
C1812       C  0.20985490  0.36705789  0.88101785     0.27500
H1813       H  0.17712100  0.34671490  0.94760714     0.13300
N1814       N  0.20024339  0.29178760  0.93949375    -0.82400
H1815       H  0.23467380  0.33722319  0.85202224     0.18100
N1816       N  0.21354079  0.39272034  0.86174820    -0.81000
H1817       H  0.18787124  0.29766981  0.95871251     0.33800
H1818       H  0.22187608  0.28628291  0.94682582     0.38300
H1819       H  0.22698142  0.38735145  0.84310551     0.33700
H1820       H  0.19233769  0.39832506  0.85332544     0.30400
H1821       H  0.10730828  0.38147159  0.89178005     0.33700
H1822       H  0.13886474  0.37662579  0.87152293     0.30400
H1823       H  0.20315212  0.45636930  0.97784353     0.38300
H1824       H  0.20867191  0.47572352  0.94546407     0.33800
C1825       C  0.12227847  0.95341172  0.92155380    -0.20000
C1826       C  0.12673586  0.92212909  0.92148487     0.36200
C1827       C  0.15336807  0.91037147  0.90907673    -0.25900
C1828       C  0.17594861  0.92933015  0.89752860     0.02700
C1829       C  0.17100954  0.96060429  0.89681341     0.27500
C1830       C  0.14392430  0.97222824  0.90826161    -0.25100
N1831       N  0.10438394  0.90253001  0.93434582    -0.82500
H1832       H  0.15685314  0.88633101  0.90897872     0.13300
C1833       C  0.20491932  0.91619486  0.88707901     0.02700
N1834       N  0.19400939  0.98053071  0.88569114    -0.81000
H1835       H  0.14057234  0.99629718  0.90863633     0.18100
C1836       C  0.21573693  0.92295623  0.85807809    -0.25900
C1837       C  0.24308661  0.91119580  0.84763646     0.36200
C1838       C  0.25967140  0.89152838  0.86606136    -0.19900
C1839       C  0.24901125  0.88490463  0.89515134    -0.25100
C1840       C  0.22198921  0.89727950  0.90599350     0.27500
H1841       H  0.20289320  0.93750647  0.84341992     0.13300
N1842       N  0.25426221  0.91977646  0.81853332    -0.82400
H1843       H  0.26169933  0.86979908  0.90937100     0.18100
N1844       N  0.21193435  0.89090111  0.93619101    -0.81000
H1845       H  0.25658935  0.94311660  0.81823721     0.33800
H1846       H  0.23815565  0.91382071  0.80243548     0.38300
H1847       H  0.22695147  0.87650960  0.94703617     0.33700
H1848       H  0.21218814  0.91106260  0.94825677     0.30400
H1849       H  0.18680068  0.00281099  0.88673543     0.33700
H1850       H  0.21250803  0.97882749  0.90010875     0.30400
H1851       H  0.08485703  0.90455011  0.92141048     0.38300
H1852       H  0.11119790  0.88016061  0.93267980     0.33800
C1853       C  0.10058796  0.90935737  0.07845163    -0.20000
C1854       C  0.08969058  0.89295666  0.10360248     0.36200
C1855       C  0.11005430  0.88331924  0.12570680    -0.25900
C1856       C  0.14085804  0.88925068  0.12276641     0.02700
C1857       C  0.15199813  0.90393182  0.09697745     0.27500
C1858       C  0.13178995  0.91361727  0.07494073    -0.25100
N1859       N  0.05809667  0.88659892  0.10692242    -0.82500
H1860       H  0.10191058  0.87161563  0.14555066     0.13300
C1861       C  0.16142651  0.88152163  0.14743131     0.02700
N1862       N  0.18372144  0.90981832  0.09383712    -0.81000
H1863       H  0.14045397  0.92599421  0.05575415     0.18100
C1864       C  0.18185387  0.85805396  0.14316254    -0.25900
C1865       C  0.20482094  0.85296810  0.16408623     0.36200
C1866       C  0.20718680  0.87181188  0.18949222    -0.19900
C1867       C  0.18585204  0.89431528  0.19458721    -0.25100
C1868       C  0.16298483  0.89957122  0.17351311     0.27500
H1869       H  0.18042862  0.84440758  0.12296329     0.13300
N1870       N  0.22629292  0.82935182  0.15934172    -0.82400
H1871       H  0.18795286  0.90863720  0.21424653     0.18100
N1872       N  0.14207408  0.92377133  0.17782754    -0.81000
H1873       H  0.22152692  0.81770982  0.13942303     0.33800
H1874       H  0.22374462  0.81400533  0.17699385     0.38300
H1875       H  0.14629113  0.93480531  0.19821563     0.33700
H1876       H  0.14587538  0.93945528  0.16070159     0.30400
H1877       H  0.18826990  0.92068674  0.07342713     0.33700
H1878       H  0.18993752  0.92469468  0.11099107     0.30400
H1879       H  0.05188554  0.87243815  0.08916657     0.38300
H1880       H  0.05393961  0.87474108  0.12685152     0.33800
C1881       C  0.92306265  0.12765285  0.95618635    -0.20000
C1882       C  0.89164565  0.13007014  0.96100371     0.36200
C1883       C  0.87581008  0.15389364  0.94812673    -0.25900
C1884       C  0.89074191  0.17528854  0.93058189     0.02700
C1885       C  0.92181154  0.17275931  0.92498696     0.27500
C1886       C  0.93767835  0.14884104  0.93771872    -0.25100
N1887       N  0.87567079  0.10856610  0.97899171    -0.82500
H1888       H  0.85183413  0.15598974  0.95223519     0.13300
C1889       C  0.87395288  0.20114677  0.91922293     0.02700
N1890       N  0.93721547  0.19506273  0.90724928    -0.81000
H1891       H  0.96172992  0.14733849  0.93389473     0.18100
C1892       C  0.87280021  0.22716566  0.93684404    -0.25900
C1893       C  0.85947195  0.25333075  0.92570355     0.36200
C1894       C  0.84792858  0.25344759  0.89605330    -0.19900
C1895       C  0.84771665  0.22673227  0.87914959    -0.25100
C1896       C  0.86052294  0.20044536  0.89058694     0.27500
H1897       H  0.88278666  0.22712058  0.95912356     0.13300
N1898       N  0.85785612  0.27980575  0.94417875    -0.82400
H1899       H  0.83877447  0.22667640  0.85644132     0.18100
N1900       N  0.86031988  0.17319585  0.87319721    -0.81000
H1901       H  0.86747284  0.27592843  0.96531106     0.33800
H1902       H  0.83508761  0.28441234  0.94796468     0.38300
H1903       H  0.84905541  0.17639172  0.85278176     0.33700
H1904       H  0.88258970  0.16794900  0.86770511     0.30400
H1905       H  0.96020665  0.19026342  0.90584131     0.33700
H1906       H  0.92886923  0.19385520  0.88526578     0.30400
H1907       H  0.86532412  0.11995109  0.99685163     0.38300
H1908       H  0.85878520  0.09898379  0.96568796     0.33800
C1909       C  0.07996946  0.10590314  0.90972426    -0.20000
C1910       C  0.10353737  0.09454859  0.89137450     0.36200
C1911       C  0.12592464  0.11422404  0.88063262    -0.25900
C1912       C  0.12489287  0.14490375  0.88730967     0.02700
C1913       C  0.10049592  0.15656908  0.90388835     0.27500
C1914       C  0.07818836  0.13701600  0.91470580    -0.25100
N1915       N  0.10500246  0.06315534  0.88408726    -0.82500
H1916       H  0.14459642  0.10558390  0.86747318     0.13300
C1917       C  0.15042055  0.16448680  0.87875260     0.02700
N1918       N  0.09911353  0.18809715  0.91065493    -0.81000
H1919       H  0.06016500  0.14608042  0.92844939     0.18100
C1920       C  0.14574387  0.18777626  0.85810421    -0.25900
C1921       C  0.16820403  0.20935585  0.85278259     0.36200
C1922       C  0.19569731  0.20743909  0.86844579    -0.19900
C1923       C  0.20104390  0.18319619  0.88773528    -0.25100
C1924       C  0.17847414  0.16176668  0.89331725     0.27500
H1925       H  0.12415964  0.18962781  0.84694336     0.13300
N1926       N  0.16299925  0.23372750  0.83227080    -0.82400
H1927       H  0.22220715  0.18200424  0.89976592     0.18100
N1928       N  0.18338542  0.13806193  0.91469342    -0.81000
H1929       H  0.14154525  0.23201500  0.82277125     0.33800
H1930       H  0.17842154  0.23162958  0.81452345     0.38300
H1931       H  0.20521871  0.13923276  0.92336977     0.33700
H1932       H  0.16873848  0.14150895  0.93288227     0.30400
H1933       H  0.07960946  0.19310314  0.92291876     0.33700
H1934       H  0.11730694  0.19327466  0.92465326     0.30400
H1935       H  0.08625440  0.05805452  0.87081277     0.38300
H1936       H  0.12398375  0.05855173  0.87086833     0.33800
C1937       C  0.94927425  0.92617429  0.12817927    -0.20000
C1938       C  0.93225926  0.94005536  0.15150816     0.36200
C1939       C  0.92088802  0.92250103  0.17523999    -0.25900
C1940       C  0.92620122  0.89165105  0.17639245     0.02700
C1941       C  0.94172850  0.87743696  0.15271466     0.27500
C1942       C  0.95310327  0.89482162  0.12880800    -0.25100
N1943       N  0.92725544  0.97191861  0.15173125    -0.82500
H1944       H  0.90868149  0.93307639  0.19358795     0.13300
C1945       C  0.91684317  0.87506038  0.20362469     0.02700
N1946       N  0.94588912  0.84547264  0.15310093    -0.81000
H1947       H  0.96556044  0.88383350  0.11090752     0.18100
C1948       C  0.88759673  0.86343337  0.20547340    -0.25900
C1949       C  0.87703661  0.85019369  0.23226748     0.36200
C1950       C  0.89651411  0.84799421  0.25733825    -0.19900
C1951       C  0.92596881  0.85930721  0.25515522    -0.25100
C1952       C  0.93627017  0.87303516  0.22857520     0.27500
H1953       H  0.87270609  0.86565363  0.18629352     0.13300
N1954       N  0.84632404  0.84012851  0.23450553    -0.82400
H1955       H  0.94076454  0.85790441  0.27449078     0.18100
N1956       N  0.96594763  0.88595078  0.22712657    -0.81000
H1957       H  0.83507033  0.84340077  0.21409842     0.33800
H1958       H  0.83550170  0.85359039  0.25051873     0.38300
H1959       H  0.97710818  0.88322354  0.24766966     0.33700
H1960       H  0.97830040  0.87400073  0.21103686     0.30400
H1961       H  0.95738685  0.83844101  0.13373397     0.33700
H1962       H  0.95966271  0.84025260  0.17141014     0.30400
H1963       H  0.94790229  0.98230916  0.15619225     0.38300
H1964       H  0.91287007  0.97799056  0.16942436     0.33800
C1965       C  0.91233824  0.08505593  0.11041645    -0.20000
C1966       C  0.91089350  0.08052106  0.14198201     0.36200
C1967       C  0.89705402  0.10197890  0.16041961    -0.25900
C1968       C  0.88417243  0.12791633  0.14820226     0.02700
C1969       C  0.88493489  0.13238015  0.11674841     0.27500
C1970       C  0.89904179  0.11098589  0.09820968    -0.25100
N1971       N  0.92382908  0.05449273  0.15567242    -0.82500
H1972       H  0.89695706  0.09861691  0.18463829     0.13300
C1973       C  0.87151083  0.15072857  0.16903399     0.02700
N1974       N  0.87151822  0.15867392  0.10380650    -0.81000
H1975       H  0.89986316  0.11483996  0.07409732     0.18100
C1976       C  0.88300680  0.18011342  0.16838502    -0.25900
C1977       C  0.87509781  0.20101094  0.19075555     0.36200
C1978       C  0.85539977  0.19220934  0.21407695    -0.19900
C1979       C  0.84260532  0.16344807  0.21384046    -0.25100
C1980       C  0.85023875  0.14265604  0.19133798     0.27500
H1981       H  0.89947033  0.18624566  0.15136942     0.13300
N1982       N  0.88806942  0.23059582  0.19074603    -0.82400
H1983       H  0.82754895  0.15688234  0.23198170     0.18100
N1984       N  0.83722674  0.11309326  0.19150324    -0.81000
H1985       H  0.90198610  0.23354544  0.17190270     0.33800
H1986       H  0.90189853  0.23243515  0.20970576     0.38300
H1987       H  0.82220246  0.11068870  0.20956039     0.33700
H1988       H  0.82458907  0.11076955  0.17177961     0.30400
H1989       H  0.87418363  0.15871633  0.08035985     0.33700
H1990       H  0.84837289  0.15762413  0.10806552     0.30400
H1991       H  0.94000295  0.06158137  0.17123651     0.38300
H1992       H  0.90684207  0.04317168  0.16747472     0.33800
loop_ 
_geom_bond_atom_site_label_1 
_geom_bond_atom_site_label_2 
_geom_bond_distance 
_geom_bond_site_symmetry_2 
_ccdc_geom_bond_type 
C1            N2   1.354       .  A
C1            N6   1.357       .  A
C1          C188   1.480       .  S
N2            C3   1.355       .  A
C3            N4   1.360       .  A
C3          C638   1.473       .  S
N4            C5   1.359       .  A
C5            N6   1.361       .  A
C5          C338   1.481       .  S
C7            N8   1.357       .  A
C7           N12   1.354       .  A
C7          C179   1.473       .  S
N8            C9   1.357       .  A
C9           N10   1.355       .  A
C9          C618   1.477       .  S
N10          C11   1.357       .  A
C11          N12   1.355       .  A
C11         C111   1.466       .  S
C13          N14   1.358       .  A
C13          N18   1.362       .  A
C13         C263   1.476       .  S
N14          C15   1.354       .  A
C15          N16   1.350       .  A
C15         C545   1.468       .  S
N16          C17   1.352       .  A
C17          N18   1.360       .  A
C17         C393   1.472       .  S
C19          N20   1.356       .  A
C19          N24   1.355       .  A
C19         C477   1.477       .  S
N20          C21   1.359       .  A
C21          N22   1.361       .  A
C21         C252   1.479       .  S
N22          C23   1.361       .  A
C23          N24   1.355       .  A
C23         C402   1.475       .  S
C25          N26   1.357       .  A
C25          N30   1.357       .  A
C25         C168   1.472       .  S
N26          C27   1.356       .  A
C27          N28   1.359       .  A
C27         C327   1.473       .  S
N28          C29   1.354       .  A
C29          N30   1.356       .  A
C29         C102   1.473       .  S
C31          N32   1.357       .  A
C31          N36   1.356       .  A
C31         C561   1.471       .  S
N32          C33   1.357       .  A
C33          N34   1.355       .  A
C33         C411   1.468       .  S
N34          C35   1.353       .  A
C35          N36   1.357       .  A
C35         C468   1.472       .  S
C37          N38   1.356       .  A
C37          N42   1.358       .  A
C37         C243   1.471       .  S
N38          C39   1.357       .  A
C39          N40   1.357       .  A
C39         C486   1.477       .  S
N40          C41   1.359       .  A
C41          N42   1.357       .  A
C41         C552   1.477       .  S
O43         Mg45   2.123   1_546  S
O43         Mg51   2.134       .  S
O43          C78   1.235       .  S
C44          O57   1.238   1_655  S
C44          O81   1.273       .  A
C44          H83   1.081       .  S
Mg45         O74   2.146       .  S
Mg45         O89   2.302   1_554  S
Mg45         O85   2.244       .  S
Mg45         O56   2.294       .  S
O46         Mg88   2.141       .  S
O46         Mg71   2.127   1_654  S
O46          C67   1.235   1_655  S
O47          C78   1.269       .  A
O47         Mg71   2.296       .  S
C48        C1937   1.490       .  S
C48          O50   1.273       .  A
C48          O62   1.273       .  A
O49          C77   1.272       .  A
O49         Mg51   2.308   1_565  S
O50         Mg82   2.268   1_655  S
Mg51         O57   2.142       .  S
Mg51         O65   2.263   1_545  S
Mg51         O53   2.297       .  S
C52        C1965   1.489       .  S
C52          O90   1.271       .  A
C52          O58   1.275       .  A
O53          C60   1.273       .  A
H54          C67   1.081       .  S
C55          O69   1.237   1_565  S
C55          O70   1.271       .  A
C55          H80   1.081       .  S
O56          C79   1.269       .  A
O57         Mg71   2.154       .  S
O58         Mg88   2.302       .  S
C59        C1881   1.480       .  S
C59          O72   1.268       .  A
C59          O64   1.274       .  A
C60        C1909   1.487       .  S
C60          O87   1.272       .  A
Mg61         O68   2.118   1_645  S
Mg61         O69   2.145       .  S
Mg61         O62   2.289   1_545  S
Mg61         O63   2.293   1_655  S
Mg61         O90   2.252       .  S
O63          C67   1.268       .  A
O64         Mg71   2.289   1_655  S
O65          C84   1.271       .  A
O66          C86   1.272       .  A
O66         Mg82   2.285       .  S
O68         Mg82   2.143       .  S
O68          C79   1.236       .  S
O69         Mg88   2.119       .  S
O70         Mg82   2.293   1_655  S
Mg71         O87   2.256       .  S
O72         Mg88   2.233   1_556  S
H73          C78   1.081   1_554  S
O74         Mg82   2.147       .  S
O74          C77   1.237   1_554  S
H75          C77   1.081       .  S
H76          C79   1.081   1_545  S
O81         Mg88   2.304   1_556  S
C84        C1825   1.475       .  S
C84          O89   1.274       .  A
O85          C86   1.271       .  A
C86        C1853   1.481       .  S
C91        C1922   1.474       .  S
C91          C92   1.398       .  A
C91          C96   1.400       .  A
C92          H97   1.084       .  S
C92          C93   1.401       .  A
C93        C1810   1.483       .  S
C93          C94   1.403       .  A
C94          H98   1.083       .  S
C94          C95   1.406       .  A
C95         C643   1.479       .  S
C95          C96   1.408       .  A
C96          H99   1.084       .  S
C100       C1978   1.471       .  S
C100        C101   1.402       .  A
C100        C105   1.397       .  A
C101        H106   1.084       .  S
C101        C102   1.407       .  A
C102        C103   1.404       .  A
C103        H107   1.084       .  S
C103        C104   1.399       .  A
C104       C1769   1.476       .  S
C104        C105   1.397       .  A
C105        H108   1.084       .  S
C109       C1866   1.466       .  S
C109        C110   1.398       .  A
C109        C114   1.399       .  A
C110        H115   1.084       .  S
C110        C111   1.403       .  A
C111        C112   1.401       .  A
C112        H116   1.084       .  S
C112        C113   1.397       .  A
C113       C1741   1.473       .  S
C113        C114   1.399       .  A
C114        H117   1.084       .  S
O118       Mg120   2.123       .  S
O118       Mg126   2.145       .  S
O118        C153   1.237       .  S
C119        O132   1.235       .  S
C119        O156   1.268       .  A
C119        H158   1.081       .  S
Mg120       O149   2.148       .  S
Mg120       O164   2.302       .  S
Mg120       O160   2.259   1_455  S
Mg120       O131   2.302       .  S
O121       Mg163   2.152       .  S
O121       Mg146   2.127       .  S
O121        C142   1.236       .  S
O122        C153   1.270       .  A
O122       Mg146   2.295       .  S
C123       C1614   1.482       .  S
C123        O125   1.270       .  A
C123        O137   1.275   1_655  A
O124        C152   1.268   1_455  A
O124       Mg126   2.292       .  S
O125       Mg157   2.247       .  S
Mg126       O132   2.123       .  S
Mg126       O140   2.250       .  S
Mg126       O128   2.280       .  S
C127       C1573   1.481       .  S
C127        O165   1.274       .  A
C127        O133   1.272       .  A
O128        C135   1.272       .  A
H129        C142   1.081       .  S
C130        O144   1.235       .  S
C130        O145   1.268       .  A
C130        H155   1.081       .  S
O131        C154   1.272       .  A
O132       Mg146   2.146       .  S
O133       Mg163   2.266       .  S
C134       C1657   1.478       .  S
C134        O147   1.270       .  A
C134        O139   1.272       .  A
C135       C1642   1.466       .  S
C135        O162   1.269       .  A
Mg136       O143   2.147       .  S
Mg136       O144   2.154       .  S
Mg136       O137   2.299       .  S
Mg136       O138   2.295       .  S
Mg136       O165   2.278       .  S
O138        C142   1.269       .  A
O139       Mg146   2.275       .  S
O140        C159   1.271       .  A
O141        C161   1.272       .  A
O141       Mg157   2.281       .  S
O143       Mg157   2.155   1_455  S
O143        C154   1.238       .  S
O144       Mg163   2.121       .  S
O145       Mg157   2.292   1_455  S
Mg146       O162   2.240       .  S
O147       Mg163   2.255       .  S
H148        C153   1.081       .  S
O149       Mg157   2.123   1_455  S
O149        C152   1.235   1_455  S
H150        C152   1.081       .  S
H151        C154   1.081       .  S
O156       Mg163   2.290       .  S
C159       C1713   1.483   1_455  S
C159        O164   1.276       .  A
O160        C161   1.272       .  A
C161       C1698   1.489       .  S
C166       C1726   1.467       .  S
C166        C167   1.398       .  A
C166        C171   1.399       .  A
C167        H172   1.084       .  S
C167        C168   1.404       .  A
C168        C169   1.404       .  A
C169        H173   1.084       .  S
C169        C170   1.402       .  A
C170       C1545   1.477       .  S
C170        C171   1.399       .  A
C171        H174   1.084       .  S
C175       C1670   1.470       .  S
C175        C176   1.398       .  A
C175        C180   1.396       .  A
C176        H181   1.084       .  S
C176        C177   1.401       .  A
C177       C1517   1.483       .  S
C177        C178   1.404       .  A
C178        H182   1.083       .  S
C178        C179   1.409       .  A
C179        C180   1.402       .  A
C180        H183   1.084       .  S
C184       C1601   1.469       .  S
C184        C185   1.401       .  A
C184        C189   1.398       .  A
C185        H190   1.084       .  S
C185        C186   1.403       .  A
C186       C1489   1.491       .  S
C186        C187   1.405       .  A
C187        H191   1.083       .  S
C187        C188   1.409       .  A
C188        C189   1.404       .  A
C189        H192   1.084       .  S
O193       Mg195   2.116   1_645  S
O193       Mg201   2.139       .  S
O193        C228   1.236   1_645  S
C194        O207   1.238       .  S
C194        O231   1.273       .  A
C194        H233   1.081       .  S
Mg195       O224   2.153   1_565  S
Mg195       O239   2.301   1_455  S
Mg195       O235   2.241       .  S
Mg195       O206   2.296   1_565  S
O196       Mg238   2.140       .  S
O196       Mg221   2.134   1_455  S
O196        C217   1.234       .  S
O197        C228   1.269   1_545  A
O197       Mg221   2.293   1_455  S
C198       C1433   1.474       .  S
C198        O200   1.270       .  A
C198        O212   1.273       .  A
O199        C227   1.271       .  A
O199       Mg201   2.302       .  S
O200       Mg232   2.246       .  S
Mg201       O207   2.150       .  S
Mg201       O215   2.282   1_545  S
Mg201       O203   2.298   1_545  S
C202       C1474   1.491       .  S
C202        O240   1.273       .  A
C202        O208   1.273       .  A
O203        C210   1.275   1_565  A
H204        C217   1.081       .  S
C205        O219   1.237       .  S
C205        O220   1.271       .  A
C205        H230   1.081       .  S
O206        C229   1.269       .  A
O207       Mg221   2.154       .  S
O208       Mg238   2.293       .  S
C209       C1782   1.458       .  S
C209        O222   1.266       .  A
C209        O214   1.275       .  A
C210       C1377   1.487   1_545  S
C210        O237   1.273       .  A
Mg211       O218   2.131       .  S
Mg211       O219   2.148       .  S
Mg211       O212   2.274       .  S
Mg211       O213   2.292       .  S
Mg211       O240   2.275       .  S
O213        C217   1.268       .  A
O214       Mg221   2.304       .  S
O215        C234   1.274       .  A
O216        C236   1.271   1_545  A
O216       Mg232   2.288       .  S
O218       Mg232   2.150       .  S
O218        C229   1.235       .  S
O219       Mg238   2.117       .  S
O220       Mg232   2.296       .  S
Mg221       O237   2.265       .  S
O222       Mg238   2.220   1_655  S
H223        C228   1.081       .  S
O224       Mg232   2.144       .  S
O224        C227   1.237   1_455  S
H225        C227   1.081       .  S
H226        C229   1.081       .  S
O231       Mg238   2.307   1_655  S
C234       C1502   1.493       .  S
C234        O239   1.274       .  A
O235        C236   1.270       .  A
C236       C1418   1.486       .  S
C241       C1405   1.467       .  S
C241        C242   1.399       .  A
C241        C246   1.397       .  A
C242        H247   1.084       .  S
C242        C243   1.405       .  A
C243        C244   1.404       .  A
C244        H248   1.084       .  S
C244        C245   1.399       .  A
C245       C1586   1.476       .  S
C245        C246   1.399       .  A
C246        H249   1.085       .  S
C250       C1461   1.473       .  S
C250        C251   1.401       .  A
C250        C255   1.400       .  A
C251        H256   1.084       .  S
C251        C252   1.406       .  A
C252        C253   1.407       .  A
C253        H257   1.083       .  S
C253        C254   1.403       .  A
C254       C1362   1.488       .  S
C254        C255   1.402       .  A
C255        H258   1.084       .  S
C259       C1390   1.475       .  S
C259        C260   1.400       .  A
C259        C264   1.398       .  A
C260        H265   1.084       .  S
C260        C261   1.401       .  A
C261       C1950   1.482       .  S
C261        C262   1.403       .  A
C262        H266   1.083       .  S
C262        C263   1.406       .  A
C263        C264   1.407       .  A
C264        H267   1.084       .  S
O268       Mg270   2.121       .  S
O268       Mg276   2.148       .  S
O268        C303   1.235       .  S
C269        O282   1.239       .  S
C269        O306   1.273       .  A
C269        H308   1.081       .  S
Mg270       O299   2.148       .  S
Mg270       O314   2.270       .  S
Mg270       O310   2.241       .  S
Mg270       O281   2.291       .  S
O271       Mg313   2.137       .  S
O271       Mg296   2.134   1_554  S
O271        C292   1.237   1_554  S
O272        C303   1.268   1_556  A
O272       Mg296   2.293       .  S
C273       C1181   1.474       .  S
C273        O275   1.269       .  A
C273        O287   1.280       .  A
O274        C302   1.270       .  A
O274       Mg276   2.296       .  S
O275       Mg307   2.225       .  S
Mg276       O282   2.136       .  S
Mg276       O290   2.265       .  S
Mg276       O278   2.279       .  S
C277       C1209   1.494   1_554  S
C277        O315   1.275       .  A
C277        O283   1.274       .  A
O278        C285   1.272   1_554  A
H279        C292   1.081       .  S
C280        O294   1.237       .  S
C280        O295   1.271       .  A
C280        H305   1.081       .  S
O281        C304   1.268       .  A
O282       Mg296   2.155   1_554  S
O283       Mg313   2.288       .  S
C284       C1306   1.475       .  S
C284        O297   1.270       .  A
C284        O289   1.275       .  A
C285       C1321   1.482       .  S
C285        O312   1.273       .  A
Mg286       O293   2.131       .  S
Mg286       O294   2.151       .  S
Mg286       O287   2.334       .  S
Mg286       O288   2.302       .  S
Mg286       O315   2.287       .  S
O288        C292   1.271   1_554  A
O289       Mg296   2.306       .  S
O290        C309   1.272       .  A
O291        C311   1.273       .  A
O291       Mg307   2.301       .  S
O293       Mg307   2.142       .  S
O293        C304   1.235       .  S
O294       Mg313   2.138       .  S
O295       Mg307   2.298       .  S
Mg296       O312   2.267       .  S
O297       Mg313   2.247   1_556  S
H298        C303   1.081       .  S
O299       Mg307   2.128       .  S
O299        C302   1.237       .  S
H300        C302   1.081       .  S
H301        C304   1.081       .  S
O306       Mg313   2.305       .  S
C309       C1237   1.483       .  S
C309        O314   1.270       .  A
O310        C311   1.270       .  A
C311       C1278   1.485       .  S
C316       C1334   1.471       .  S
C316        C317   1.398       .  A
C316        C321   1.400       .  A
C317        H322   1.084       .  S
C317        C318   1.398       .  A
C318       C1153   1.475       .  S
C318        C319   1.398       .  A
C319        H323   1.084       .  S
C319        C320   1.406       .  A
C320        C645   1.475       .  S
C320        C321   1.406       .  A
C321        H324   1.084       .  S
C325       C1265   1.476       .  S
C325        C326   1.404       .  A
C325        C330   1.401       .  A
C326        H331   1.084       .  S
C326        C327   1.408       .  A
C327        C328   1.401       .  A
C328        H332   1.084       .  S
C328        C329   1.395       .  A
C329       C1138   1.475       .  S
C329        C330   1.397       .  A
C330        H333   1.084       .  S
C334       C1222   1.478       .  S
C334        C335   1.401       .  A
C334        C339   1.406       .  A
C335        H340   1.084       .  S
C335        C336   1.400       .  A
C336       C1097   1.480       .  S
C336        C337   1.398       .  A
C337        H341   1.084       .  S
C337        C338   1.404       .  A
C338        C339   1.410       .  A
C339        H342   1.083       .  S
O343       Mg345   2.124       .  S
O343       Mg351   2.143       .  S
O343        C378   1.235       .  S
C344        O357   1.237   1_556  S
C344        O381   1.271       .  A
C344        H383   1.081       .  S
Mg345       O374   2.151       .  S
Mg345       O389   2.306       .  S
Mg345       O385   2.258       .  S
Mg345       O356   2.296       .  S
O346       Mg388   2.148       .  S
O346       Mg371   2.122   1_456  S
O346        C367   1.236   1_455  S
O347        C378   1.268       .  A
O347       Mg371   2.291   1_455  S
C348       C1797   1.486       .  S
C348        O350   1.271       .  A
C348        O362   1.276       .  A
O349        C377   1.271       .  A
O349       Mg351   2.297       .  S
O350       Mg382   2.249   1_556  S
Mg351       O357   2.132       .  S
Mg351       O365   2.248       .  S
Mg351       O353   2.282       .  S
C352       C1026   1.488   1_455  S
C352        O390   1.273       .  A
C352        O358   1.272   1_455  A
O353        C360   1.271   1_455  A
H354        C367   1.081   1_554  S
C355        O369   1.238       .  S
C355        O370   1.272       .  A
C355        H380   1.081       .  S
O356        C379   1.269       .  A
O357       Mg371   2.152   1_455  S
O358       Mg388   2.283   1_655  S
C359       C1110   1.478       .  S
C359        O372   1.273       .  A
C359        O364   1.274       .  A
C360       C1054   1.488       .  S
C360        O387   1.273       .  A
Mg361       O368   2.132   1_556  S
Mg361       O369   2.156       .  S
Mg361       O362   2.306       .  S
Mg361       O363   2.295       .  S
Mg361       O390   2.263       .  S
O363        C367   1.269   1_455  A
O364       Mg371   2.287   1_556  S
O365        C384   1.270       .  A
O366        C386   1.276       .  A
O366       Mg382   2.311       .  S
O368       Mg382   2.143       .  S
O368        C379   1.235       .  S
O369       Mg388   2.147       .  S
O370       Mg382   2.303   1_556  S
Mg371       O387   2.261       .  S
O372       Mg388   2.274   1_655  S
H373        C378   1.081       .  S
O374       Mg382   2.134       .  S
O374        C377   1.238       .  S
H375        C377   1.081       .  S
H376        C379   1.081       .  S
O381       Mg388   2.294       .  S
C384       C1530   1.488       .  S
C384        O389   1.276       .  A
O385        C386   1.272       .  A
C386       C1082   1.491       .  S
C391       C1041   1.467       .  S
C391        C392   1.398       .  A
C391        C396   1.399       .  A
C392        H397   1.084       .  S
C392        C393   1.401       .  A
C393        C394   1.408       .  A
C394        H398   1.083       .  S
C394        C395   1.399       .  A
C395       C1194   1.485       .  S
C395        C396   1.403       .  A
C396        H399   1.084       .  S
C400       C1069   1.473       .  S
C400        C401   1.401       .  A
C400        C405   1.398       .  A
C401        H406   1.084       .  S
C401        C402   1.409       .  A
C402        C403   1.403       .  A
C403        H407   1.084       .  S
C403        C404   1.402       .  A
C404       C1629   1.476       .  S
C404        C405   1.399       .  A
C405        H408   1.085       .  S
C409       C1013   1.464       .  S
C409        C410   1.397       .  A
C409        C414   1.397       .  A
C410        H415   1.084       .  S
C410        C411   1.402       .  A
C411        C412   1.404       .  A
C412        H416   1.084       .  S
C412        C413   1.400       .  A
C413       C1894   1.479       .  S
C413        C414   1.400       .  A
C414        H417   1.084       .  S
O418       Mg420   2.122       .  S
O418       Mg426   2.147       .  S
O418        C453   1.238   1_545  S
C419        O432   1.236       .  S
C419        O456   1.270       .  A
C419        H458   1.081   1_565  S
Mg420       O449   2.148       .  S
Mg420       O464   2.311       .  S
Mg420       O460   2.257       .  S
Mg420       O431   2.303       .  S
O421       Mg463   2.145   1_554  S
O421       Mg446   2.127       .  S
O421        C442   1.237       .  S
O422        C453   1.272       .  A
O422       Mg446   2.299       .  S
C423        C957   1.480   1_554  S
C423        O425   1.269       .  A
C423        O437   1.275       .  A
O424        C452   1.267       .  A
O424       Mg426   2.288       .  S
O425       Mg457   2.245       .  S
Mg426       O432   2.134   1_545  S
Mg426       O440   2.267       .  S
Mg426       O428   2.277   1_545  S
C427        C929   1.475       .  S
C427        O465   1.273       .  A
C427        O433   1.273       .  A
O428        C435   1.272       .  A
H429        C442   1.081       .  S
C430        O444   1.236   1_556  S
C430        O445   1.269   1_556  A
C430        H455   1.081       .  S
O431        C454   1.272       .  A
O432       Mg446   2.145       .  S
O433       Mg463   2.282       .  S
C434        C901   1.484       .  S
C434        O447   1.271       .  A
C434        O439   1.274   1_556  A
C435       C1754   1.464       .  S
C435        O462   1.269       .  A
Mg436       O443   2.138       .  S
Mg436       O444   2.143       .  S
Mg436       O437   2.303       .  S
Mg436       O438   2.300   1_545  S
Mg436       O465   2.264   1_544  S
O438        C442   1.271       .  A
O439       Mg446   2.293       .  S
O440        C459   1.273       .  A
O441        C461   1.270       .  A
O441       Mg457   2.252       .  S
O443       Mg457   2.145       .  S
O443        C454   1.238       .  S
O444       Mg463   2.119   1_544  S
O445       Mg457   2.290       .  S
Mg446       O462   2.239       .  S
O447       Mg463   2.265       .  S
H448        C453   1.081       .  S
O449       Mg457   2.119       .  S
O449        C452   1.235       .  S
H450        C452   1.081       .  S
H451        C454   1.081       .  S
O456       Mg463   2.297   1_554  S
C459        C998   1.493       .  S
C459        O464   1.277       .  A
O460        C461   1.271       .  A
C461       C1125   1.471       .  S
C466        C970   1.473       .  S
C466        C467   1.400       .  A
C466        C471   1.401       .  A
C467        H472   1.083       .  S
C467        C468   1.405       .  A
C468        C469   1.400       .  A
C469        H473   1.083       .  S
C469        C470   1.399       .  A
C470        C886   1.477       .  S
C470        C471   1.401       .  A
C471        H474   1.084       .  S
C475        C985   1.472       .  S
C475        C476   1.401       .  A
C475        C480   1.401       .  A
C476        H481   1.084       .  S
C476        C477   1.405       .  A
C477        C478   1.405       .  A
C478        H482   1.084       .  S
C478        C479   1.400       .  A
C479       C1250   1.480       .  S
C479        C480   1.401       .  A
C480        H483   1.084       .  S
C484        C914   1.475       .  S
C484        C485   1.401       .  A
C484        C489   1.403       .  A
C485        H490   1.084       .  S
C485        C486   1.405       .  A
C486        C487   1.405       .  A
C487        H491   1.083       .  S
C487        C488   1.402       .  A
C488       C1838   1.484       .  S
C488        C489   1.403       .  A
C489        H492   1.084       .  S
O493       Mg495   2.109       .  S
O493       Mg501   2.149       .  S
O493        C528   1.234       .  S
C494        O507   1.238       .  S
C494        O531   1.272       .  A
C494        H533   1.081       .  S
Mg495       O524   2.151       .  S
Mg495       O539   2.276       .  S
Mg495       O535   2.225       .  S
Mg495       O506   2.285       .  S
O496       Mg538   2.140       .  S
O496       Mg521   2.135       .  S
O496        C517   1.236       .  S
O497        C528   1.266       .  A
O497       Mg521   2.287       .  S
C498       C1166   1.471       .  S
C498        O500   1.269       .  A
C498        O512   1.277       .  A
O499        C527   1.269       .  A
O499       Mg501   2.285       .  S
O500       Mg532   2.228       .  S
Mg501       O507   2.136       .  S
Mg501       O515   2.256       .  S
Mg501       O503   2.248       .  S
C502        C774   1.488       .  S
C502        O540   1.272       .  A
C502        O508   1.275       .  A
O503        C510   1.268       .  A
H504        C517   1.081       .  S
C505        O519   1.238       .  S
C505        O520   1.272       .  A
C505        H530   1.081       .  S
O506        C529   1.267       .  A
O507       Mg521   2.162       .  S
O508       Mg538   2.301       .  S
C509        C789   1.485       .  S
C509        O522   1.271       .  A
C509        O514   1.275       .  A
C510        C817   1.484       .  S
C510        O537   1.274       .  A
Mg511       O518   2.118       .  S
Mg511       O519   2.150       .  S
Mg511       O512   2.310       .  S
Mg511       O513   2.303       .  S
Mg511       O540   2.255       .  S
O513        C517   1.270       .  A
O514       Mg521   2.294       .  S
O515        C534   1.270       .  A
O516        C536   1.275       .  A
O516       Mg532   2.310       .  S
O518       Mg532   2.145       .  S
O518        C529   1.234       .  S
O519       Mg538   2.146       .  S
O520       Mg532   2.302       .  S
Mg521       O537   2.277       .  S
O522       Mg538   2.254       .  S
H523        C528   1.081       .  S
O524       Mg532   2.119       .  S
O524        C527   1.236       .  S
H525        C527   1.081       .  S
H526        C529   1.081       .  S
O531       Mg538   2.304       .  S
C534       C1558   1.480       .  S
C534        O539   1.272       .  A
O535        C536   1.270       .  A
C536        C858   1.482       .  S
C541        C830   1.464       .  S
C541        C542   1.395       .  A
C541        C546   1.394       .  A
C542        H547   1.085       .  S
C542        C543   1.399       .  A
C543        C746   1.476       .  S
C543        C544   1.401       .  A
C544        H548   1.084       .  S
C544        C545   1.405       .  A
C545        C546   1.404       .  A
C546        H549   1.084       .  S
C550        C761   1.472       .  S
C550        C551   1.400       .  A
C550        C555   1.401       .  A
C551        H556   1.084       .  S
C551        C552   1.406       .  A
C552        C553   1.404       .  A
C553        H557   1.083       .  S
C553        C554   1.402       .  A
C554       C1293   1.486       .  S
C554        C555   1.403       .  A
C555        H558   1.084       .  S
C559        C845   1.468       .  S
C559        C560   1.396       .  A
C559        C564   1.398       .  A
C560        H565   1.084       .  S
C560        C561   1.402       .  A
C561        C562   1.405       .  A
C562        H566   1.083       .  S
C562        C563   1.406       .  A
C563       C1685   1.488       .  S
C563        C564   1.404       .  A
C564        H567   1.083       .  S
O568       Mg570   2.122       .  S
O568       Mg576   2.140       .  S
O568        C603   1.235       .  S
C569        O582   1.238       .  S
C569        O606   1.272       .  A
C569        H608   1.081       .  S
Mg570       O599   2.146       .  S
Mg570       O614   2.283       .  S
Mg570       O610   2.256       .  S
Mg570       O581   2.291       .  S
O571       Mg613   2.140       .  S
O571       Mg596   2.133       .  S
O571        C592   1.236       .  S
O572        C603   1.268       .  A
O572       Mg596   2.290       .  S
C573        C733   1.469       .  S
C573        O575   1.267       .  A
C573        O587   1.275       .  A
O574        C602   1.271       .  A
O574       Mg576   2.298       .  S
O575       Mg607   2.222   1_565  S
Mg576       O582   2.127       .  S
Mg576       O590   2.240       .  S
Mg576       O578   2.296       .  S
C577        C705   1.486       .  S
C577        O615   1.271       .  A
C577        O583   1.274   1_565  A
O578        C585   1.275       .  A
H579        C592   1.081       .  S
C580        O594   1.238       .  S
C580        O595   1.272       .  A
C580        H605   1.081       .  S
O581        C604   1.269   1_545  A
O582       Mg596   2.151       .  S
O583       Mg613   2.292       .  S
C584       C1349   1.475       .  S
C584        O597   1.271       .  A
C584        O589   1.273       .  A
C585        C690   1.488       .  S
C585        O612   1.272       .  A
Mg586       O593   2.116   1_565  S
Mg586       O594   2.148   1_565  S
Mg586       O587   2.313       .  S
Mg586       O588   2.300   1_565  S
Mg586       O615   2.251       .  S
O588        C592   1.270       .  A
O589       Mg596   2.287       .  S
O590        C609   1.271       .  A
O591        C611   1.270       .  A
O591       Mg607   2.281       .  S
O593       Mg607   2.134       .  S
O593        C604   1.236   1_545  S
O594       Mg613   2.139       .  S
O595       Mg607   2.302       .  S
Mg596       O612   2.265       .  S
O597       Mg613   2.256       .  S
H598        C603   1.081       .  S
O599       Mg607   2.124       .  S
O599        C602   1.238       .  S
H600        C602   1.081       .  S
H601        C604   1.081       .  S
O606       Mg613   2.301       .  S
C609        C873   1.469       .  S
C609        O614   1.272       .  A
O610        C611   1.272       .  A
C611        C649   1.488   1_545  S
C616        C718   1.471       .  S
C616        C617   1.399       .  A
C616        C621   1.399       .  A
C617        H622   1.084       .  S
C617        C618   1.406       .  A
C618        C619   1.405       .  A
C619        H623   1.083       .  S
C619        C620   1.402       .  A
C620        C802   1.483       .  S
C620        C621   1.402       .  A
C621        H624   1.084       .  S
C625        C677   1.473       .  S
C625        C626   1.399       .  A
C625        C630   1.404       .  A
C626        H631   1.084       .  S
C626        C627   1.397       .  A
C627       C1446   1.472       .  S
C627        C628   1.395       .  A
C628        H632   1.084       .  S
C628        C629   1.403       .  A
C629        C647   1.475       .  S
C629        C630   1.409       .  A
C630        H633   1.084       .  S
C634        C662   1.476       .  S
C634        C635   1.400       .  A
C634        C639   1.398       .  A
C635        H640   1.083       .  S
C635        C636   1.403       .  A
C636        C942   1.484       .  S
C636        C637   1.403       .  A
C637        H641   1.083       .  S
C637        C638   1.404       .  A
C638        C639   1.405       .  A
C639        H642   1.084       .  S
C643        N644   1.358       .  A
C643        N648   1.355       .  A
N644        C645   1.358       .  A
C645        N646   1.358       .  A
N646        C647   1.354       .  A
C647        N648   1.357       .  A
C649        C650   1.421       .  A
C649        C654   1.406       .  A
C650        C651   1.407       .  A
C650        N655   1.438       .  S
C651        H656   1.084       .  S
C651        C652   1.400       .  A
C652        C657   1.480       .  S
C652        C653   1.409       .  A
C653        C654   1.400       .  A
C653        N658   1.439       .  S
C654        H659   1.083   1_565  S
N655        H675   1.046       .  S
N655        H676   1.046       .  S
C657        C660   1.403       .  A
C657        C664   1.411       .  A
N658        H673   1.045       .  S
N658        H674   1.046       .  S
C660        H665   1.084       .  S
C660        C661   1.403       .  A
C661        C662   1.411       .  A
C661        N666   1.439       .  S
C662        C663   1.402       .  A
C663        H667   1.084       .  S
C663        C664   1.403       .  A
C664        N668   1.438       .  S
N666        H669   1.046       .  S
N666        H670   1.043       .  S
N668        H671   1.046       .  S
N668        H672   1.045       .  S
C677        C678   1.406       .  A
C677        C682   1.404       .  A
C678        C679   1.398       .  A
C678        N683   1.433       .  S
C679        H684   1.084       .  S
C679        C680   1.401       .  A
C680        C685   1.475       .  S
C680        C681   1.409       .  A
C681        C682   1.408       .  A
C681        N686   1.437       .  S
C682        H687   1.084       .  S
N683        H703   1.046       .  S
N683        H704   1.045       .  S
C685        C688   1.400       .  A
C685        C692   1.404       .  A
N686        H701   1.046       .  S
N686        H702   1.045       .  S
C688        H693   1.084       .  S
C688        C689   1.407       .  A
C689        C690   1.418       .  A
C689        N694   1.438       .  S
C690        C691   1.409       .  A
C691        H695   1.083       .  S
C691        C692   1.403       .  A
C692        N696   1.438       .  S
N694        H697   1.046       .  S
N694        H698   1.046       .  S
N696        H699   1.046       .  S
N696        H700   1.046       .  S
C705        C706   1.415       .  A
C705        C710   1.409       .  A
C706        C707   1.400       .  A
C706        N711   1.433       .  S
C707        H712   1.084       .  S
C707        C708   1.401       .  A
C708        C713   1.479       .  S
C708        C709   1.407       .  A
C709        C710   1.404       .  A
C709        N714   1.438       .  S
C710        H715   1.083   1_565  S
N711        H731   1.046       .  S
N711        H732   1.046       .  S
C713        C716   1.403       .  A
C713        C720   1.410       .  A
N714        H729   1.046       .  S
N714        H730   1.045       .  S
C716        H721   1.084       .  S
C716        C717   1.403       .  A
C717        C718   1.407       .  A
C717        N722   1.438       .  S
C718        C719   1.401       .  A
C719        H723   1.084       .  S
C719        C720   1.404       .  A
C720        N724   1.438       .  S
N722        H725   1.046       .  S
N722        H726   1.046       .  S
N724        H727   1.045       .  S
N724        H728   1.046       .  S
C733        C734   1.407       .  A
C733        C738   1.403       .  A
C734        C735   1.404       .  A
C734        N739   1.437       .  S
C735        H740   1.084       .  S
C735        C736   1.405       .  A
C736        C741   1.479       .  S
C736        C737   1.410       .  A
C737        C738   1.399       .  A
C737        N742   1.439       .  S
C738        H743   1.084       .  S
N739        H759   1.046       .  S
N739        H760   1.046       .  S
C741        C744   1.405       .  A
C741        C748   1.410       .  A
N742        H757   1.046       .  S
N742        H758   1.046       .  S
C744        H749   1.084       .  S
C744        C745   1.404       .  A
C745        C746   1.409       .  A
C745        N750   1.438       .  S
C746        C747   1.404       .  A
C747        H751   1.084       .  S
C747        C748   1.399       .  A
C748        N752   1.439       .  S
N750        H753   1.045       .  S
N750        H754   1.046       .  S
N752        H755   1.046       .  S
N752        H756   1.046       .  S
C761        C762   1.406       .  A
C761        C766   1.400       .  A
C762        C763   1.406       .  A
C762        N767   1.438       .  S
C763        H768   1.083       .  S
C763        C764   1.408       .  A
C764        C769   1.490       .  S
C764        C765   1.414       .  A
C765        C766   1.403       .  A
C765        N770   1.438       .  S
C766        H771   1.084       .  S
N767        H787   1.045       .  S
N767        H788   1.046       .  S
C769        C772   1.404       .  A
C769        C776   1.412       .  A
N770        H785   1.046       .  S
N770        H786   1.045       .  S
C772        H777   1.083       .  S
C772        C773   1.399       .  A
C773        C774   1.412       .  A
C773        N778   1.433       .  S
C774        C775   1.409       .  A
C775        H779   1.083       .  S
C775        C776   1.407       .  A
C776        N780   1.438       .  S
N778        H781   1.046       .  S
N778        H782   1.046       .  S
N780        H783   1.046       .  S
N780        H784   1.045       .  S
C789        C790   1.417       .  A
C789        C794   1.407       .  A
C790        C791   1.406       .  A
C790        N795   1.438       .  S
C791        H796   1.084       .  S
C791        C792   1.399       .  A
C792        C797   1.472       .  S
C792        C793   1.405       .  A
C793        C794   1.401       .  A
C793        N798   1.438       .  S
C794        H799   1.083       .  S
N795        H815   1.046       .  S
N795        H816   1.046       .  S
C797        C800   1.401       .  A
C797        C804   1.405       .  A
N798        H813   1.045       .  S
N798        H814   1.046       .  S
C800        H805   1.084       .  S
C800        C801   1.404       .  A
C801        C802   1.413       .  A
C801        N806   1.438       .  S
C802        C803   1.407       .  A
C803        H807   1.083       .  S
C803        C804   1.402       .  A
C804        N808   1.438       .  S
N806        H809   1.046       .  S
N806        H810   1.045       .  S
N808        H811   1.046       .  S
N808        H812   1.046       .  S
C817        C818   1.422       .  A
C817        C822   1.406       .  A
C818        C819   1.400       .  A
C818        N823   1.439       .  S
C819        H824   1.084       .  S
C819        C820   1.394       .  A
C820        C825   1.466       .  S
C820        C821   1.406       .  A
C821        C822   1.402       .  A
C821        N826   1.438       .  S
C822        H827   1.083       .  S
N823        H843   1.046       .  S
N823        H844   1.046       .  S
C825        C828   1.399       .  A
C825        C832   1.408       .  A
N826        H841   1.046       .  S
N826        H842   1.045       .  S
C828        H833   1.084       .  S
C828        C829   1.403       .  A
C829        C830   1.411       .  A
C829        N834   1.438       .  S
C830        C831   1.398       .  A
C831        H835   1.084       .  S
C831        C832   1.398       .  A
C832        N836   1.438       .  S
N834        H837   1.046       .  S
N834        H838   1.046       .  S
N836        H839   1.046       .  S
N836        H840   1.045       .  S
C845        C846   1.407       .  A
C845        C850   1.399       .  A
C846        C847   1.402       .  A
C846        N851   1.438       .  S
C847        H852   1.084       .  S
C847        C848   1.404       .  A
C848        C853   1.479       .  S
C848        C849   1.412       .  A
C849        C850   1.402       .  A
C849        N854   1.438       .  S
C850        H855   1.084       .  S
N851        H871   1.046       .  S
N851        H872   1.046       .  S
C853        C856   1.403       .  A
C853        C860   1.408       .  A
N854        H869   1.046       .  S
N854        H870   1.046       .  S
C856        H861   1.084       .  S
C856        C857   1.406       .  A
C857        C858   1.416       .  A
C857        N862   1.438       .  S
C858        C859   1.406       .  A
C859        H863   1.084       .  S
C859        C860   1.398       .  A
C860        N864   1.439       .  S
N862        H865   1.046       .  S
N862        H866   1.046       .  S
N864        H867   1.046       .  S
N864        H868   1.046       .  S
C873        C874   1.411       .  A
C873        C878   1.401       .  A
C874        C875   1.403       .  A
C874        N879   1.438       .  S
C875        H880   1.084       .  S
C875        C876   1.404       .  A
C876        C881   1.479       .  S
C876        C877   1.411       .  A
C877        C878   1.398       .  A
C877        N882   1.439       .  S
C878        H883   1.084       .  S
N879        H899   1.046       .  S
N879        H900   1.046       .  S
C881        C884   1.402       .  A
C881        C888   1.412       .  A
N882        H897   1.046       .  S
N882        H898   1.046       .  S
C884        H889   1.084       .  S
C884        C885   1.396       .  A
C885        C886   1.408       .  A
C885        N890   1.433       .  S
C886        C887   1.404       .  A
C887        H891   1.084       .  S
C887        C888   1.403       .  A
C888        N892   1.438       .  S
N890        H893   1.046       .  S
N890        H894   1.046       .  S
N892        H895   1.046       .  S
N892        H896   1.045       .  S
C901        C902   1.414       .  A
C901        C906   1.405       .  A
C902        C903   1.407       .  A
C902        N907   1.438       .  S
C903        H908   1.083       .  S
C903        C904   1.406       .  A
C904        C909   1.490       .  S
C904        C905   1.413       .  A
C905        C906   1.402       .  A
C905        N910   1.439       .  S
C906        H911   1.084   1_556  S
N907        H927   1.045       .  S
N907        H928   1.046       .  S
C909        C912   1.406       .  A
C909        C916   1.416       .  A
N910        H925   1.046   1_556  S
N910        H926   1.046       .  S
C912        H917   1.083       .  S
C912        C913   1.405       .  A
C913        C914   1.408       .  A
C913        N918   1.438       .  S
C914        C915   1.400       .  A
C915        H919   1.084       .  S
C915        C916   1.404       .  A
C916        N920   1.438       .  S
N918        H921   1.046       .  S
N918        H922   1.046       .  S
N920        H923   1.046       .  S
N920        H924   1.046       .  S
C929        C930   1.414       .  A
C929        C934   1.404       .  A
C930        C931   1.403       .  A
C930        N935   1.438       .  S
C931        H936   1.084       .  S
C931        C932   1.398       .  A
C932        C937   1.471       .  S
C932        C933   1.407       .  A
C933        C934   1.403       .  A
C933        N938   1.438       .  S
C934        H939   1.084       .  S
N935        H955   1.046       .  S
N935        H956   1.046       .  S
C937        C940   1.399       .  A
C937        C944   1.405       .  A
N938        H953   1.045       .  S
N938        H954   1.046       .  S
C940        H945   1.084       .  S
C940        C941   1.402       .  A
C941        C942   1.414       .  A
C941        N946   1.438       .  S
C942        C943   1.408       .  A
C943        H947   1.083       .  S
C943        C944   1.404       .  A
C944        N948   1.437       .  S
N946        H949   1.046       .  S
N946        H950   1.045       .  S
N948        H951   1.045       .  S
N948        H952   1.046       .  S
C957        C958   1.416       .  A
C957        C962   1.405       .  A
C958        C959   1.405       .  A
C958        N963   1.438   1_556  S
C959        H964   1.084       .  S
C959        C960   1.399       .  A
C960        C965   1.472       .  S
C960        C961   1.407       .  A
C961        C962   1.402       .  A
C961        N966   1.439       .  S
C962        H967   1.084       .  S
N963        H983   1.045       .  S
N963        H984   1.046       .  S
C965        C968   1.400       .  A
C965        C972   1.409       .  A
N966        H981   1.046       .  S
N966        H982   1.045       .  S
C968        H973   1.084       .  S
C968        C969   1.405       .  A
C969        C970   1.412       .  A
C969        N974   1.438       .  S
C970        C971   1.401       .  A
C971        H975   1.084       .  S
C971        C972   1.402       .  A
C972        N976   1.438       .  S
N974        H977   1.046       .  S
N974        H978   1.045       .  S
N976        H979   1.046       .  S
N976        H980   1.045       .  S
C985        C986   1.411       .  A
C985        C990   1.399       .  A
C986        C987   1.401       .  A
C986        N991   1.432       .  S
C987        H992   1.084       .  S
C987        C988   1.405       .  A
C988        C993   1.484       .  S
C988        C989   1.414       .  A
C989        C990   1.403       .  A
C989        N994   1.438       .  S
C990        H995   1.084       .  S
N991       H1011   1.046       .  S
N991       H1012   1.045       .  S
C993        C996   1.401       .  A
C993       C1000   1.409       .  A
N994       H1009   1.046       .  S
N994       H1010   1.046       .  S
C996       H1001   1.084       .  S
C996        C997   1.406       .  A
C997        C998   1.418       .  A
C997       N1002   1.438       .  S
C998        C999   1.409       .  A
C999       H1003   1.083       .  S
C999       C1000   1.405       .  A
C1000      N1004   1.438       .  S
N1002      H1005   1.046       .  S
N1002      H1006   1.046       .  S
N1004      H1007   1.046       .  S
N1004      H1008   1.046       .  S
C1013      C1014   1.405       .  A
C1013      C1018   1.399       .  A
C1014      C1015   1.400       .  A
C1014      N1019   1.432       .  S
C1015      H1020   1.084       .  S
C1015      C1016   1.401       .  A
C1016      C1021   1.472       .  S
C1016      C1017   1.410       .  A
C1017      C1018   1.400       .  A
C1017      N1022   1.438       .  S
C1018      H1023   1.084       .  S
N1019      H1039   1.046       .  S
N1019      H1040   1.046       .  S
C1021      C1024   1.397       .  A
C1021      C1028   1.406       .  A
N1022      H1037   1.046       .  S
N1022      H1038   1.046       .  S
C1024      H1029   1.084       .  S
C1024      C1025   1.402       .  A
C1025      C1026   1.420       .  A
C1025      N1030   1.438       .  S
C1026      C1027   1.408       .  A
C1027      H1031   1.083   1_655  S
C1027      C1028   1.402       .  A
C1028      N1032   1.438       .  S
N1030      H1033   1.046       .  S
N1030      H1034   1.046       .  S
N1032      H1035   1.046       .  S
N1032      H1036   1.046       .  S
C1041      C1042   1.408       .  A
C1041      C1046   1.399       .  A
C1042      C1043   1.402       .  A
C1042      N1047   1.438       .  S
C1043      H1048   1.084       .  S
C1043      C1044   1.401       .  A
C1044      C1049   1.476       .  S
C1044      C1045   1.412       .  A
C1045      C1046   1.403       .  A
C1045      N1050   1.438       .  S
C1046      H1051   1.084       .  S
N1047      H1067   1.046       .  S
N1047      H1068   1.046       .  S
C1049      C1052   1.399       .  A
C1049      C1056   1.407       .  A
N1050      H1065   1.046       .  S
N1050      H1066   1.046       .  S
C1052      H1057   1.084       .  S
C1052      C1053   1.404       .  A
C1053      C1054   1.420       .  A
C1053      N1058   1.439   1_655  S
C1054      C1055   1.407       .  A
C1055      H1059   1.083       .  S
C1055      C1056   1.402       .  A
C1056      N1060   1.438       .  S
N1058      H1061   1.046       .  S
N1058      H1062   1.046       .  S
N1060      H1063   1.046       .  S
N1060      H1064   1.046       .  S
C1069      C1070   1.407       .  A
C1069      C1074   1.401       .  A
C1070      C1071   1.406       .  A
C1070      N1075   1.437       .  S
C1071      H1076   1.084       .  S
C1071      C1072   1.406       .  A
C1072      C1077   1.485       .  S
C1072      C1073   1.411       .  A
C1073      C1074   1.404       .  A
C1073      N1078   1.437       .  S
C1074      H1079   1.084       .  S
N1075      H1095   1.045       .  S
N1075      H1096   1.046       .  S
C1077      C1080   1.402       .  A
C1077      C1084   1.408       .  A
N1078      H1093   1.046       .  S
N1078      H1094   1.045       .  S
C1080      H1085   1.084       .  S
C1080      C1081   1.404       .  A
C1081      C1082   1.417       .  A
C1081      N1086   1.438       .  S
C1082      C1083   1.409       .  A
C1083      H1087   1.083       .  S
C1083      C1084   1.407       .  A
C1084      N1088   1.437       .  S
N1086      H1089   1.046       .  S
N1086      H1090   1.046       .  S
N1088      H1091   1.046       .  S
N1088      H1092   1.046       .  S
C1097      C1098   1.415       .  A
C1097      C1102   1.402       .  A
C1098      C1099   1.404       .  A
C1098      N1103   1.438       .  S
C1099      H1104   1.084       .  S
C1099      C1100   1.400       .  A
C1100      C1105   1.479       .  S
C1100      C1101   1.411       .  A
C1101      C1102   1.404       .  A
C1101      N1106   1.438       .  S
C1102      H1107   1.084       .  S
N1103      H1123   1.046       .  S
N1103      H1124   1.046       .  S
C1105      C1108   1.399       .  A
C1105      C1112   1.410       .  A
N1106      H1121   1.046       .  S
N1106      H1122   1.046       .  S
C1108      H1113   1.084       .  S
C1108      C1109   1.401       .  A
C1109      C1110   1.414       .  A
C1109      N1114   1.439       .  S
C1110      C1111   1.405       .  A
C1111      H1115   1.084       .  S
C1111      C1112   1.408       .  A
C1112      N1116   1.437       .  S
N1114      H1117   1.046       .  S
N1114      H1118   1.046       .  S
N1116      H1119   1.046       .  S
N1116      H1120   1.045       .  S
C1125      C1126   1.411       .  A
C1125      C1130   1.405       .  A
C1126      C1127   1.404       .  A
C1126      N1131   1.437       .  S
C1127      H1132   1.084       .  S
C1127      C1128   1.402       .  A
C1128      C1133   1.469       .  S
C1128      C1129   1.406       .  A
C1129      C1130   1.394       .  A
C1129      N1134   1.439       .  S
C1130      H1135   1.084       .  S
N1131      H1151   1.046       .  S
N1131      H1152   1.046       .  S
C1133      C1136   1.400       .  A
C1133      C1140   1.407       .  A
N1134      H1149   1.046       .  S
N1134      H1150   1.046       .  S
C1136      H1141   1.084       .  S
C1136      C1137   1.399       .  A
C1137      C1138   1.412       .  A
C1137      N1142   1.438       .  S
C1138      C1139   1.404       .  A
C1139      H1143   1.084       .  S
C1139      C1140   1.400       .  A
C1140      N1144   1.438       .  S
N1142      H1145   1.046       .  S
N1142      H1146   1.046       .  S
N1144      H1147   1.046       .  S
N1144      H1148   1.046       .  S
C1153      C1154   1.410       .  A
C1153      C1158   1.404       .  A
C1154      C1155   1.401       .  A
C1154      N1159   1.438       .  S
C1155      H1160   1.084       .  S
C1155      C1156   1.401       .  A
C1156      C1161   1.472       .  S
C1156      C1157   1.407       .  A
C1157      C1158   1.402       .  A
C1157      N1162   1.438       .  S
C1158      H1163   1.084       .  S
N1159      H1179   1.046       .  S
N1159      H1180   1.046       .  S
C1161      C1164   1.399       .  A
C1161      C1168   1.409       .  A
N1162      H1177   1.046       .  S
N1162      H1178   1.046       .  S
C1164      H1169   1.084       .  S
C1164      C1165   1.404       .  A
C1165      C1166   1.413       .  A
C1165      N1170   1.438       .  S
C1166      C1167   1.401       .  A
C1167      H1171   1.084       .  S
C1167      C1168   1.400       .  A
C1168      N1172   1.438       .  S
N1170      H1173   1.046       .  S
N1170      H1174   1.046       .  S
N1172      H1175   1.046       .  S
N1172      H1176   1.046       .  S
C1181      C1182   1.408       .  A
C1181      C1186   1.405       .  A
C1182      C1183   1.405       .  A
C1182      N1187   1.437       .  S
C1183      H1188   1.084       .  S
C1183      C1184   1.405       .  A
C1184      C1189   1.481       .  S
C1184      C1185   1.410       .  A
C1185      C1186   1.402       .  A
C1185      N1190   1.439       .  S
C1186      H1191   1.084       .  S
N1187      H1207   1.046       .  S
N1187      H1208   1.046       .  S
C1189      C1192   1.404       .  A
C1189      C1196   1.409       .  A
N1190      H1205   1.046       .  S
N1190      H1206   1.046       .  S
C1192      H1197   1.084       .  S
C1192      C1193   1.408       .  A
C1193      C1194   1.416       .  A
C1193      N1198   1.438       .  S
C1194      C1195   1.403       .  A
C1195      H1199   1.083       .  S
C1195      C1196   1.398       .  A
C1196      N1200   1.439       .  S
N1198      H1201   1.046       .  S
N1198      H1202   1.046       .  S
N1200      H1203   1.045       .  S
N1200      H1204   1.046       .  S
C1209      C1210   1.413       .  A
C1209      C1214   1.411       .  A
C1210      C1211   1.405       .  A
C1210      N1215   1.432   1_556  S
C1211      H1216   1.084       .  S
C1211      C1212   1.404       .  A
C1212      C1217   1.491       .  S
C1212      C1213   1.410       .  A
C1213      C1214   1.407       .  A
C1213      N1218   1.438       .  S
C1214      H1219   1.083       .  S
N1215      H1235   1.046       .  S
N1215      H1236   1.046       .  S
C1217      C1220   1.407       .  A
C1217      C1224   1.412       .  A
N1218      H1233   1.046       .  S
N1218      H1234   1.046       .  S
C1220      H1225   1.084       .  S
C1220      C1221   1.406       .  A
C1221      C1222   1.408       .  A
C1221      N1226   1.438       .  S
C1222      C1223   1.402       .  A
C1223      H1227   1.084       .  S
C1223      C1224   1.408       .  A
C1224      N1228   1.437       .  S
N1226      H1229   1.046       .  S
N1226      H1230   1.045       .  S
N1228      H1231   1.046       .  S
N1228      H1232   1.045       .  S
C1237      C1238   1.419       .  A
C1237      C1242   1.407       .  A
C1238      C1239   1.401       .  A
C1238      N1243   1.439       .  S
C1239      H1244   1.084       .  S
C1239      C1240   1.397       .  A
C1240      C1245   1.471       .  S
C1240      C1241   1.406       .  A
C1241      C1242   1.405       .  A
C1241      N1246   1.438       .  S
C1242      H1247   1.083       .  S
N1243      H1263   1.046       .  S
N1243      H1264   1.046       .  S
C1245      C1248   1.398       .  A
C1245      C1252   1.408       .  A
N1246      H1261   1.046       .  S
N1246      H1262   1.045       .  S
C1248      H1253   1.084       .  S
C1248      C1249   1.402       .  A
C1249      C1250   1.414       .  A
C1249      N1254   1.438       .  S
C1250      C1251   1.404       .  A
C1251      H1255   1.084       .  S
C1251      C1252   1.404       .  A
C1252      N1256   1.438       .  S
N1254      H1257   1.046       .  S
N1254      H1258   1.046       .  S
N1256      H1259   1.046       .  S
N1256      H1260   1.045       .  S
C1265      C1266   1.411       .  A
C1265      C1270   1.402       .  A
C1266      C1267   1.401       .  A
C1266      N1271   1.438       .  S
C1267      H1272   1.084       .  S
C1267      C1268   1.400       .  A
C1268      C1273   1.476       .  S
C1268      C1269   1.411       .  A
C1269      C1270   1.406       .  A
C1269      N1274   1.438       .  S
C1270      H1275   1.084       .  S
N1271      H1291   1.045       .  S
N1271      H1292   1.046       .  S
C1273      C1276   1.400       .  A
C1273      C1280   1.408       .  A
N1274      H1289   1.046       .  S
N1274      H1290   1.046       .  S
C1276      H1281   1.084       .  S
C1276      C1277   1.407       .  A
C1277      C1278   1.418       .  A
C1277      N1282   1.438       .  S
C1278      C1279   1.406       .  A
C1279      H1283   1.083       .  S
C1279      C1280   1.399       .  A
C1280      N1284   1.439       .  S
N1282      H1285   1.046       .  S
N1282      H1286   1.046       .  S
N1284      H1287   1.046       .  S
N1284      H1288   1.046       .  S
C1293      C1294   1.413       .  A
C1293      C1298   1.404       .  A
C1294      C1295   1.405       .  A
C1294      N1299   1.438       .  S
C1295      H1300   1.083       .  S
C1295      C1296   1.404       .  A
C1296      C1301   1.487       .  S
C1296      C1297   1.412       .  A
C1297      C1298   1.402       .  A
C1297      N1302   1.438       .  S
C1298      H1303   1.083       .  S
N1299      H1319   1.046       .  S
N1299      H1320   1.046       .  S
C1301      C1304   1.407       .  A
C1301      C1308   1.412       .  A
N1302      H1317   1.046       .  S
N1302      H1318   1.046       .  S
C1304      H1309   1.084       .  S
C1304      C1305   1.405       .  A
C1305      C1306   1.409       .  A
C1305      N1310   1.438       .  S
C1306      C1307   1.403       .  A
C1307      H1311   1.084       .  S
C1307      C1308   1.402       .  A
C1308      N1312   1.438       .  S
N1310      H1313   1.046       .  S
N1310      H1314   1.046       .  S
N1312      H1315   1.046       .  S
N1312      H1316   1.045       .  S
C1321      C1322   1.417       .  A
C1321      C1326   1.405       .  A
C1322      C1323   1.402       .  A
C1322      N1327   1.438       .  S
C1323      H1328   1.084       .  S
C1323      C1324   1.399       .  A
C1324      C1329   1.476       .  S
C1324      C1325   1.410       .  A
C1325      C1326   1.403       .  A
C1325      N1330   1.438       .  S
C1326      H1331   1.083       .  S
N1327      H1347   1.045   1_556  S
N1327      H1348   1.046   1_556  S
C1329      C1332   1.401       .  A
C1329      C1336   1.411       .  A
N1330      H1345   1.046       .  S
N1330      H1346   1.046       .  S
C1332      H1337   1.084       .  S
C1332      C1333   1.402       .  A
C1333      C1334   1.410       .  A
C1333      N1338   1.438       .  S
C1334      C1335   1.399       .  A
C1335      H1339   1.084       .  S
C1335      C1336   1.402       .  A
C1336      N1340   1.438       .  S
N1338      H1341   1.046       .  S
N1338      H1342   1.046       .  S
N1340      H1343   1.046       .  S
N1340      H1344   1.046       .  S
C1349      C1350   1.411       .  A
C1349      C1354   1.403       .  A
C1350      C1351   1.404       .  A
C1350      N1355   1.438       .  S
C1351      H1356   1.084       .  S
C1351      C1352   1.404       .  A
C1352      C1357   1.484       .  S
C1352      C1353   1.411       .  A
C1353      C1354   1.403       .  A
C1353      N1358   1.438       .  S
C1354      H1359   1.084       .  S
N1355      H1375   1.046       .  S
N1355      H1376   1.046       .  S
C1357      C1360   1.403       .  A
C1357      C1364   1.410       .  A
N1358      H1373   1.046       .  S
N1358      H1374   1.046       .  S
C1360      H1365   1.084       .  S
C1360      C1361   1.405       .  A
C1361      C1362   1.414       .  A
C1361      N1366   1.438       .  S
C1362      C1363   1.406       .  A
C1363      H1367   1.083       .  S
C1363      C1364   1.402       .  A
C1364      N1368   1.439       .  S
N1366      H1369   1.045       .  S
N1366      H1370   1.046       .  S
N1368      H1371   1.046       .  S
N1368      H1372   1.046       .  S
C1377      C1378   1.417       .  A
C1377      C1382   1.410       .  A
C1378      C1379   1.402       .  A
C1378      N1383   1.438   1_565  S
C1379      H1384   1.084       .  S
C1379      C1380   1.400       .  A
C1380      C1385   1.478       .  S
C1380      C1381   1.405       .  A
C1381      C1382   1.406       .  A
C1381      N1386   1.437       .  S
C1382      H1387   1.083       .  S
N1383      H1403   1.046   1_545  S
N1383      H1404   1.046   1_545  S
C1385      C1388   1.404       .  A
C1385      C1392   1.407       .  A
N1386      H1401   1.046       .  S
N1386      H1402   1.046       .  S
C1388      H1393   1.084       .  S
C1388      C1389   1.406       .  A
C1389      C1390   1.410       .  A
C1389      N1394   1.438       .  S
C1390      C1391   1.402       .  A
C1391      H1395   1.084       .  S
C1391      C1392   1.401       .  A
C1392      N1396   1.437       .  S
N1394      H1397   1.046       .  S
N1394      H1398   1.045       .  S
N1396      H1399   1.046       .  S
N1396      H1400   1.046       .  S
C1405      C1406   1.408       .  A
C1405      C1410   1.399       .  A
C1406      C1407   1.403       .  A
C1406      N1411   1.437       .  S
C1407      H1412   1.084       .  S
C1407      C1408   1.401       .  A
C1408      C1413   1.472       .  S
C1408      C1409   1.410       .  A
C1409      C1410   1.402       .  A
C1409      N1414   1.438       .  S
C1410      H1415   1.084       .  S
N1411      H1431   1.046       .  S
N1411      H1432   1.046       .  S
C1413      C1416   1.398       .  A
C1413      C1420   1.405       .  A
N1414      H1429   1.046       .  S
N1414      H1430   1.046       .  S
C1416      H1421   1.084       .  S
C1416      C1417   1.405       .  A
C1417      C1418   1.420       .  A
C1417      N1422   1.438   1_565  S
C1418      C1419   1.408       .  A
C1419      H1423   1.083       .  S
C1419      C1420   1.399       .  A
C1420      N1424   1.439       .  S
N1422      H1425   1.046       .  S
N1422      H1426   1.046       .  S
N1424      H1427   1.046       .  S
N1424      H1428   1.046       .  S
C1433      C1434   1.414       .  A
C1433      C1438   1.406       .  A
C1434      C1435   1.404       .  A
C1434      N1439   1.437       .  S
C1435      H1440   1.084       .  S
C1435      C1436   1.399       .  A
C1436      C1441   1.465       .  S
C1436      C1437   1.404       .  A
C1437      C1438   1.397       .  A
C1437      N1442   1.439       .  S
C1438      H1443   1.084       .  S
N1439      H1459   1.045       .  S
N1439      H1460   1.046       .  S
C1441      C1444   1.400       .  A
C1441      C1448   1.404       .  A
N1442      H1457   1.045       .  S
N1442      H1458   1.045       .  S
C1444      H1449   1.084       .  S
C1444      C1445   1.401       .  A
C1445      C1446   1.409       .  A
C1445      N1450   1.438       .  S
C1446      C1447   1.405       .  A
C1447      H1451   1.084       .  S
C1447      C1448   1.399       .  A
C1448      N1452   1.438       .  S
N1450      H1453   1.046       .  S
N1450      H1454   1.045       .  S
N1452      H1455   1.046       .  S
N1452      H1456   1.046       .  S
C1461      C1462   1.409       .  A
C1461      C1466   1.400       .  A
C1462      C1463   1.404       .  A
C1462      N1467   1.438       .  S
C1463      H1468   1.084       .  S
C1463      C1464   1.401       .  A
C1464      C1469   1.480       .  S
C1464      C1465   1.412       .  A
C1465      C1466   1.406       .  A
C1465      N1470   1.438       .  S
C1466      H1471   1.084       .  S
N1467      H1487   1.045       .  S
N1467      H1488   1.046       .  S
C1469      C1472   1.399       .  A
C1469      C1476   1.409       .  A
N1470      H1485   1.046       .  S
N1470      H1486   1.046       .  S
C1472      H1477   1.084       .  S
C1472      C1473   1.406       .  A
C1473      C1474   1.419       .  A
C1473      N1478   1.438       .  S
C1474      C1475   1.407       .  A
C1475      H1479   1.083       .  S
C1475      C1476   1.404       .  A
C1476      N1480   1.438       .  S
N1478      H1481   1.046       .  S
N1478      H1482   1.046       .  S
N1480      H1483   1.046       .  S
N1480      H1484   1.046       .  S
C1489      C1490   1.416       .  A
C1489      C1494   1.406       .  A
C1490      C1491   1.406       .  A
C1490      N1495   1.438       .  S
C1491      H1496   1.084       .  S
C1491      C1492   1.399       .  A
C1492      C1497   1.481       .  S
C1492      C1493   1.409       .  A
C1493      C1494   1.407       .  A
C1493      N1498   1.438       .  S
C1494      H1499   1.084       .  S
N1495      H1515   1.046       .  S
N1495      H1516   1.045       .  S
C1497      C1500   1.398       .  A
C1497      C1504   1.407       .  A
N1498      H1513   1.046       .  S
N1498      H1514   1.045       .  S
C1500      H1505   1.084       .  S
C1500      C1501   1.406       .  A
C1501      C1502   1.421       .  A
C1501      N1506   1.439       .  S
C1502      C1503   1.408       .  A
C1503      H1507   1.083       .  S
C1503      C1504   1.408       .  A
C1504      N1508   1.437       .  S
N1506      H1509   1.046       .  S
N1506      H1510   1.046       .  S
N1508      H1511   1.045       .  S
N1508      H1512   1.045       .  S
C1517      C1518   1.413       .  A
C1517      C1522   1.406       .  A
C1518      C1519   1.403       .  A
C1518      N1523   1.438       .  S
C1519      H1524   1.084       .  S
C1519      C1520   1.399       .  A
C1520      C1525   1.474       .  S
C1520      C1521   1.408       .  A
C1521      C1522   1.406       .  A
C1521      N1526   1.438       .  S
C1522      H1527   1.083       .  S
N1523      H1543   1.046       .  S
N1523      H1544   1.046       .  S
C1525      C1528   1.398       .  A
C1525      C1532   1.407       .  A
N1526      H1541   1.046       .  S
N1526      H1542   1.045       .  S
C1528      H1533   1.084       .  S
C1528      C1529   1.405       .  A
C1529      C1530   1.420       .  A
C1529      N1534   1.438       .  S
C1530      C1531   1.408       .  A
C1531      H1535   1.083       .  S
C1531      C1532   1.403       .  A
C1532      N1536   1.438       .  S
N1534      H1537   1.046       .  S
N1534      H1538   1.046       .  S
N1536      H1539   1.046       .  S
N1536      H1540   1.045       .  S
C1545      C1546   1.412       .  A
C1545      C1550   1.404       .  A
C1546      C1547   1.405       .  A
C1546      N1551   1.438       .  S
C1547      H1552   1.084       .  S
C1547      C1548   1.401       .  A
C1548      C1553   1.470       .  S
C1548      C1549   1.406       .  A
C1549      C1550   1.400       .  A
C1549      N1554   1.438       .  S
C1550      H1555   1.084       .  S
N1551      H1571   1.046       .  S
N1551      H1572   1.046       .  S
C1553      C1556   1.399       .  A
C1553      C1560   1.405       .  A
N1554      H1569   1.045       .  S
N1554      H1570   1.046       .  S
C1556      H1561   1.084       .  S
C1556      C1557   1.404       .  A
C1557      C1558   1.414       .  A
C1557      N1562   1.438       .  S
C1558      C1559   1.408       .  A
C1559      H1563   1.084       .  S
C1559      C1560   1.402       .  A
C1560      N1564   1.438       .  S
N1562      H1565   1.046       .  S
N1562      H1566   1.046       .  S
N1564      H1567   1.046       .  S
N1564      H1568   1.045       .  S
C1573      C1574   1.413       .  A
C1573      C1578   1.407       .  A
C1574      C1575   1.407       .  A
C1574      N1579   1.437       .  S
C1575      H1580   1.084       .  S
C1575      C1576   1.404       .  A
C1576      C1581   1.480       .  S
C1576      C1577   1.408       .  A
C1577      C1578   1.398       .  A
C1577      N1582   1.439       .  S
C1578      H1583   1.084       .  S
N1579      H1599   1.046       .  S
N1579      H1600   1.046       .  S
C1581      C1584   1.405       .  A
C1581      C1588   1.410       .  A
N1582      H1597   1.046       .  S
N1582      H1598   1.046       .  S
C1584      H1589   1.084       .  S
C1584      C1585   1.403       .  A
C1585      C1586   1.409       .  A
C1585      N1590   1.438       .  S
C1586      C1587   1.403       .  A
C1587      H1591   1.084       .  S
C1587      C1588   1.401       .  A
C1588      N1592   1.438       .  S
N1590      H1593   1.046       .  S
N1590      H1594   1.046       .  S
N1592      H1595   1.046       .  S
N1592      H1596   1.046       .  S
C1601      C1602   1.408       .  A
C1601      C1606   1.398       .  A
C1602      C1603   1.405       .  A
C1602      N1607   1.437       .  S
C1603      H1608   1.084       .  S
C1603      C1604   1.403       .  A
C1604      C1609   1.477       .  S
C1604      C1605   1.412       .  A
C1605      C1606   1.401       .  A
C1605      N1610   1.438       .  S
C1606      H1611   1.084       .  S
N1607      H1627   1.046       .  S
N1607      H1628   1.046       .  S
C1609      C1612   1.400       .  A
C1609      C1616   1.410       .  A
N1610      H1625   1.046       .  S
N1610      H1626   1.046       .  S
C1612      H1617   1.084       .  S
C1612      C1613   1.400       .  A
C1613      C1614   1.413       .  A
C1613      N1618   1.432       .  S
C1614      C1615   1.406       .  A
C1615      H1619   1.083   1_655  S
C1615      C1616   1.403       .  A
C1616      N1620   1.438       .  S
N1618      H1621   1.046       .  S
N1618      H1622   1.046       .  S
N1620      H1623   1.046       .  S
N1620      H1624   1.046       .  S
C1629      C1630   1.413       .  A
C1629      C1634   1.403       .  A
C1630      C1631   1.403       .  A
C1630      N1635   1.438       .  S
C1631      H1636   1.084       .  S
C1631      C1632   1.398       .  A
C1632      C1637   1.467       .  S
C1632      C1633   1.408       .  A
C1633      C1634   1.401       .  A
C1633      N1638   1.439       .  S
C1634      H1639   1.084       .  S
N1635      H1655   1.046       .  S
N1635      H1656   1.046       .  S
C1637      C1640   1.399       .  A
C1637      C1644   1.407       .  A
N1638      H1653   1.046       .  S
N1638      H1654   1.045       .  S
C1640      H1645   1.084       .  S
C1640      C1641   1.402       .  A
C1641      C1642   1.413       .  A
C1641      N1646   1.439       .  S
C1642      C1643   1.402       .  A
C1643      H1647   1.084       .  S
C1643      C1644   1.400       .  A
C1644      N1648   1.438       .  S
N1646      H1649   1.046       .  S
N1646      H1650   1.046       .  S
N1648      H1651   1.046       .  S
N1648      H1652   1.045       .  S
C1657      C1658   1.412       .  A
C1657      C1662   1.407       .  A
C1658      C1659   1.400       .  A
C1658      N1663   1.433       .  S
C1659      H1664   1.084       .  S
C1659      C1660   1.398       .  A
C1660      C1665   1.468       .  S
C1660      C1661   1.407       .  A
C1661      C1662   1.401       .  A
C1661      N1666   1.439       .  S
C1662      H1667   1.084       .  S
N1663      H1683   1.046       .  S
N1663      H1684   1.046       .  S
C1665      C1668   1.400       .  A
C1665      C1672   1.409       .  A
N1666      H1681   1.046       .  S
N1666      H1682   1.045       .  S
C1668      H1673   1.084       .  S
C1668      C1669   1.405       .  A
C1669      C1670   1.412       .  A
C1669      N1674   1.438       .  S
C1670      C1671   1.400       .  A
C1671      H1675   1.084       .  S
C1671      C1672   1.398       .  A
C1672      N1676   1.439       .  S
N1674      H1677   1.046       .  S
N1674      H1678   1.046       .  S
N1676      H1679   1.046       .  S
N1676      H1680   1.045       .  S
C1685      C1686   1.415       .  A
C1685      C1690   1.406       .  A
C1686      C1687   1.402       .  A
C1686      N1691   1.438       .  S
C1687      H1692   1.083       .  S
C1687      C1688   1.402       .  A
C1688      C1693   1.485       .  S
C1688      C1689   1.411       .  A
C1689      C1690   1.404       .  A
C1689      N1694   1.438       .  S
C1690      H1695   1.083       .  S
N1691      H1711   1.046       .  S
N1691      H1712   1.046       .  S
C1693      C1696   1.401       .  A
C1693      C1700   1.410       .  A
N1694      H1709   1.046       .  S
N1694      H1710   1.046       .  S
C1696      H1701   1.084       .  S
C1696      C1697   1.401       .  A
C1697      C1698   1.419       .  A
C1697      N1702   1.438       .  S
C1698      C1699   1.408       .  A
C1699      H1703   1.083       .  S
C1699      C1700   1.405       .  A
C1700      N1704   1.438       .  S
N1702      H1705   1.046       .  S
N1702      H1706   1.046       .  S
N1704      H1707   1.046       .  S
N1704      H1708   1.045       .  S
C1713      C1714   1.417       .  A
C1713      C1718   1.406       .  A
C1714      C1715   1.404       .  A
C1714      N1719   1.438   1_655  S
C1715      H1720   1.084       .  S
C1715      C1716   1.399       .  A
C1716      C1721   1.472       .  S
C1716      C1717   1.407       .  A
C1717      C1718   1.401       .  A
C1717      N1722   1.439       .  S
C1718      H1723   1.083       .  S
N1719      H1739   1.046       .  S
N1719      H1740   1.046       .  S
C1721      C1724   1.401       .  A
C1721      C1728   1.409       .  A
N1722      H1737   1.046       .  S
N1722      H1738   1.046       .  S
C1724      H1729   1.084       .  S
C1724      C1725   1.405       .  A
C1725      C1726   1.410       .  A
C1725      N1730   1.438       .  S
C1726      C1727   1.399       .  A
C1727      H1731   1.084       .  S
C1727      C1728   1.399       .  A
C1728      N1732   1.438       .  S
N1730      H1733   1.046       .  S
N1730      H1734   1.045       .  S
N1732      H1735   1.046       .  S
N1732      H1736   1.046       .  S
C1741      C1742   1.415       .  A
C1741      C1746   1.400       .  A
C1742      C1743   1.402       .  A
C1742      N1747   1.438       .  S
C1743      H1748   1.084       .  S
C1743      C1744   1.397       .  A
C1744      C1749   1.464       .  S
C1744      C1745   1.408       .  A
C1745      C1746   1.398       .  A
C1745      N1750   1.439       .  S
C1746      H1751   1.084       .  S
N1747      H1767   1.046       .  S
N1747      H1768   1.046       .  S
C1749      C1752   1.399       .  A
C1749      C1756   1.406       .  A
N1750      H1765   1.046       .  S
N1750      H1766   1.045       .  S
C1752      H1757   1.084       .  S
C1752      C1753   1.400       .  A
C1753      C1754   1.411       .  A
C1753      N1758   1.439       .  S
C1754      C1755   1.403       .  A
C1755      H1759   1.084       .  S
C1755      C1756   1.400       .  A
C1756      N1760   1.438       .  S
N1758      H1761   1.046       .  S
N1758      H1762   1.046       .  S
N1760      H1763   1.046       .  S
N1760      H1764   1.045       .  S
C1769      C1770   1.412       .  A
C1769      C1774   1.405       .  A
C1770      C1771   1.398       .  A
C1770      N1775   1.438       .  S
C1771      H1776   1.084       .  S
C1771      C1772   1.399       .  A
C1772      C1777   1.470       .  S
C1772      C1773   1.407       .  A
C1773      C1774   1.403       .  A
C1773      N1778   1.437       .  S
C1774      H1779   1.084       .  S
N1775      H1795   1.045       .  S
N1775      H1796   1.046       .  S
C1777      C1780   1.401       .  A
C1777      C1784   1.409       .  A
N1778      H1793   1.046       .  S
N1778      H1794   1.045       .  S
C1780      H1785   1.084       .  S
C1780      C1781   1.401       .  A
C1781      C1782   1.409       .  A
C1781      N1786   1.439   1_655  S
C1782      C1783   1.398       .  A
C1783      H1787   1.084       .  S
C1783      C1784   1.400       .  A
C1784      N1788   1.437       .  S
N1786      H1789   1.046       .  S
N1786      H1790   1.046       .  S
N1788      H1791   1.046       .  S
N1788      H1792   1.046       .  S
C1797      C1798   1.416       .  A
C1797      C1802   1.408       .  A
C1798      C1799   1.402       .  A
C1798      N1803   1.432       .  S
C1799      H1804   1.084       .  S
C1799      C1800   1.397       .  A
C1800      C1805   1.472       .  S
C1800      C1801   1.406       .  A
C1801      C1802   1.403       .  A
C1801      N1806   1.438       .  S
C1802      H1807   1.083       .  S
N1803      H1823   1.046       .  S
N1803      H1824   1.046       .  S
C1805      C1808   1.400       .  A
C1805      C1812   1.406       .  A
N1806      H1821   1.046       .  S
N1806      H1822   1.046       .  S
C1808      H1813   1.084       .  S
C1808      C1809   1.402       .  A
C1809      C1810   1.413       .  A
C1809      N1814   1.438       .  S
C1810      C1811   1.407       .  A
C1811      H1815   1.083       .  S
C1811      C1812   1.404       .  A
C1812      N1816   1.437       .  S
N1814      H1817   1.046       .  S
N1814      H1818   1.045       .  S
N1816      H1819   1.046       .  S
N1816      H1820   1.045       .  S
C1825      C1826   1.409       .  A
C1825      C1830   1.403       .  A
C1826      C1827   1.405       .  A
C1826      N1831   1.437       .  S
C1827      H1832   1.084       .  S
C1827      C1828   1.405       .  A
C1828      C1833   1.488       .  S
C1828      C1829   1.413       .  A
C1829      C1830   1.404       .  A
C1829      N1834   1.438       .  S
C1830      H1835   1.084       .  S
N1831      H1851   1.046       .  S
N1831      H1852   1.046       .  S
C1833      C1836   1.403       .  A
C1833      C1840   1.414       .  A
N1834      H1849   1.046   1_565  S
N1834      H1850   1.046       .  S
C1836      H1841   1.084       .  S
C1836      C1837   1.402       .  A
C1837      C1838   1.410       .  A
C1837      N1842   1.433       .  S
C1838      C1839   1.403       .  A
C1839      H1843   1.084       .  S
C1839      C1840   1.405       .  A
C1840      N1844   1.438       .  S
N1842      H1845   1.046       .  S
N1842      H1846   1.046       .  S
N1844      H1847   1.046       .  S
N1844      H1848   1.046       .  S
C1853      C1854   1.417       .  A
C1853      C1858   1.406       .  A
C1854      C1855   1.404       .  A
C1854      N1859   1.438       .  S
C1855      H1860   1.084       .  S
C1855      C1856   1.398       .  A
C1856      C1861   1.469       .  S
C1856      C1857   1.406       .  A
C1857      C1858   1.398       .  A
C1857      N1862   1.439       .  S
C1858      H1863   1.083       .  S
N1859      H1879   1.046       .  S
N1859      H1880   1.046       .  S
C1861      C1864   1.399       .  A
C1861      C1868   1.410       .  A
N1862      H1877   1.046       .  S
N1862      H1878   1.046       .  S
C1864      H1869   1.084       .  S
C1864      C1865   1.400       .  A
C1865      C1866   1.408       .  A
C1865      N1870   1.438       .  S
C1866      C1867   1.400       .  A
C1867      H1871   1.084       .  S
C1867      C1868   1.403       .  A
C1868      N1872   1.438       .  S
N1870      H1873   1.046       .  S
N1870      H1874   1.046       .  S
N1872      H1875   1.046       .  S
N1872      H1876   1.046       .  S
C1881      C1882   1.415       .  A
C1881      C1886   1.407       .  A
C1882      C1883   1.399       .  A
C1882      N1887   1.433       .  S
C1883      H1888   1.084       .  S
C1883      C1884   1.396       .  A
C1884      C1889   1.466       .  S
C1884      C1885   1.406       .  A
C1885      C1886   1.400       .  A
C1885      N1890   1.438       .  S
C1886      H1891   1.083       .  S
N1887      H1907   1.046       .  S
N1887      H1908   1.046       .  S
C1889      C1892   1.399       .  A
C1889      C1896   1.405       .  A
N1890      H1905   1.046       .  S
N1890      H1906   1.045       .  S
C1892      H1897   1.084       .  S
C1892      C1893   1.401       .  A
C1893      C1894   1.412       .  A
C1893      N1898   1.438       .  S
C1894      C1895   1.407       .  A
C1895      H1899   1.083       .  S
C1895      C1896   1.401       .  A
C1896      N1900   1.438       .  S
N1898      H1901   1.046       .  S
N1898      H1902   1.046       .  S
N1900      H1903   1.046       .  S
N1900      H1904   1.045       .  S
C1909      C1910   1.418       .  A
C1909      C1914   1.407       .  A
C1910      C1911   1.406       .  A
C1910      N1915   1.438       .  S
C1911      H1916   1.084       .  S
C1911      C1912   1.400       .  A
C1912      C1917   1.478       .  S
C1912      C1913   1.408       .  A
C1913      C1914   1.402       .  A
C1913      N1918   1.439       .  S
C1914      H1919   1.083       .  S
N1915      H1935   1.046       .  S
N1915      H1936   1.046       .  S
C1917      C1920   1.401       .  A
C1917      C1924   1.411       .  A
N1918      H1933   1.046       .  S
N1918      H1934   1.046       .  S
C1920      H1925   1.084       .  S
C1920      C1921   1.404       .  A
C1921      C1922   1.410       .  A
C1921      N1926   1.437       .  S
C1922      C1923   1.400       .  A
C1923      H1927   1.084       .  S
C1923      C1924   1.404       .  A
C1924      N1928   1.438       .  S
N1926      H1929   1.046       .  S
N1926      H1930   1.046       .  S
N1928      H1931   1.046       .  S
N1928      H1932   1.046       .  S
C1937      C1938   1.421       .  A
C1937      C1942   1.409       .  A
C1938      C1939   1.404       .  A
C1938      N1943   1.439       .  S
C1939      H1944   1.084       .  S
C1939      C1940   1.397       .  A
C1940      C1945   1.474       .  S
C1940      C1941   1.405       .  A
C1941      C1942   1.405       .  A
C1941      N1946   1.438       .  S
C1942      H1947   1.083       .  S
N1943      H1963   1.046       .  S
N1943      H1964   1.046       .  S
C1945      C1948   1.399       .  A
C1945      C1952   1.408       .  A
N1946      H1961   1.046       .  S
N1946      H1962   1.045       .  S
C1948      H1953   1.084       .  S
C1948      C1949   1.405       .  A
C1949      C1950   1.414       .  A
C1949      N1954   1.438       .  S
C1950      C1951   1.404       .  A
C1951      H1955   1.084       .  S
C1951      C1952   1.403       .  A
C1952      N1956   1.438       .  S
N1954      H1957   1.046       .  S
N1954      H1958   1.046       .  S
N1956      H1959   1.046       .  S
N1956      H1960   1.045       .  S
C1965      C1966   1.415       .  A
C1965      C1970   1.409       .  A
C1966      C1967   1.400       .  A
C1966      N1971   1.433       .  S
C1967      H1972   1.084       .  S
C1967      C1968   1.402       .  A
C1968      C1973   1.484       .  S
C1968      C1969   1.409       .  A
C1969      C1970   1.406       .  A
C1969      N1974   1.438       .  S
C1970      H1975   1.083       .  S
N1971      H1991   1.046       .  S
N1971      H1992   1.046       .  S
C1973      C1976   1.405       .  A
C1973      C1980   1.411       .  A
N1974      H1989   1.046       .  S
N1974      H1990   1.046       .  S
C1976      H1981   1.083       .  S
C1976      C1977   1.404       .  A
C1977      C1978   1.407       .  A
C1977      N1982   1.438       .  S
C1978      C1979   1.401       .  A
C1979      H1983   1.084       .  S
C1979      C1980   1.402       .  A
C1980      N1984   1.438       .  S
N1982      H1985   1.046       .  S
N1982      H1986   1.046       .  S
N1984      H1987   1.046       .  S
N1984      H1988   1.045       .  S
