geometry optimzed in LAMMPS
_audit_creation_date              2020-11-30 
_audit_creation_method            'lammps2cif' 
_symmetry_space_group_name_H-M    'P1' 
_symmetry_Int_Tables_number       1 
_symmetry_cell_setting            triclinic 
loop_ 
_symmetry_equiv_pos_as_xyz 
  x,y,z 
_cell_length_a                    29.66854847 
_cell_length_b                    29.78087760540087 
_cell_length_c                    44.094169203672934 
_cell_angle_alpha                 89.85914406625908 
_cell_angle_beta                  90.15896922515103 
_cell_angle_gamma                 121.06519579119596 
loop_ 
_atom_site_label 
_atom_site_type_symbol 
_atom_site_fract_x 
_atom_site_fract_y 
_atom_site_fract_z 
_atom_site_charge 
In1        In  0.48019513  0.33460149  0.96195967     1.36900
C2          C  0.56080176  0.41475300  0.99107603     0.77000
O3          O  0.41521280  0.34221551  0.94009000    -0.61400
O4          O  0.42892887  0.35715985  0.98711504    -0.52300
C5          C  0.51385091  0.33861316  0.90545662     0.69700
O6          O  0.53834854  0.37346978  0.92516265    -0.47200
C7          C  0.46834571  0.24545614  0.98420199     0.74400
O8          O  0.54662095  0.41825645  0.96470692    -0.59000
O9          O  0.43115642  0.25442490  0.98489846    -0.49100
O10         O  0.53253283  0.37052191  0.00341131    -0.55500
C11         C  0.40519166  0.35878903  0.96383345     0.84600
O12         O  0.46985467  0.30120596  0.91439668    -0.57400
O13         O  0.50932710  0.28050063  0.97142984    -0.60700
In14       In  0.46595943  0.31627945  0.52918395     1.36900
C15         C  0.54745168  0.40202396  0.50508666     0.77000
O16         O  0.49893098  0.28191414  0.49777029    -0.61400
O17         O  0.42015663  0.23141232  0.51201536    -0.52300
C18         C  0.49145098  0.29884207  0.58399161     0.69700
O19         O  0.50355193  0.34384620  0.57479524    -0.47200
C20         C  0.39186328  0.34218845  0.53156282     0.74400
O21         O  0.55115312  0.38253996  0.52966275    -0.59000
O22         O  0.40174982  0.32597094  0.50761773    -0.49100
O23         O  0.50246194  0.37802622  0.49311573    -0.55500
C24         C  0.45899678  0.23647220  0.49718804     0.84600
O25         O  0.46278053  0.26212988  0.56593282    -0.57400
O26         O  0.41442671  0.33845965  0.55476155    -0.60700
In27       In  0.67930546  0.12172338  0.52895201     1.36900
C28         C  0.59500347  0.11538085  0.50329887     0.77000
O29         O  0.71584442  0.18936445  0.49721477    -0.61400
O30         O  0.76491800  0.16223836  0.51388219    -0.52300
C31         C  0.69410474  0.16401850  0.58378396     0.69700
O32         O  0.64945802  0.13096578  0.57341819    -0.47200
C33         C  0.65189899  0.02146154  0.53182918     0.74400
O34         O  0.61447534  0.13965008  0.52767730    -0.59000
O35         O  0.67240860  0.04880519  0.50845682    -0.49100
O36         O  0.61862060  0.09444432  0.49188937    -0.55500
C37         C  0.76114128  0.19565875  0.49807688     0.84600
O38         O  0.73201429  0.17348328  0.56658869    -0.57400
O39         O  0.65226965  0.04688465  0.55461989    -0.60700
In40       In  0.47391587  0.11735574  0.45890839     1.36900
C41         C  0.54984719  0.11349914  0.48868291     0.77000
O42         O  0.50258519  0.20116114  0.46982713    -0.61400
O43         O  0.42359044  0.14627974  0.48122781    -0.52300
C44         C  0.51459558  0.14919172  0.40379128     0.69700
O45         O  0.53778831  0.14168762  0.42532313    -0.47200
C46         C  0.39795287  0.01733255  0.46013423     0.74400
O47         O  0.53354403  0.09297713  0.46305174    -0.59000
O48         O  0.42029445  0.04293671  0.48374368    -0.49100
O49         O  0.52563868  0.13396830  0.49999573    -0.55500
C50         C  0.46088373  0.19341961  0.48196105     0.84600
O51         O  0.46884071  0.13938201  0.41027782    -0.57400
O52         O  0.40945123  0.04430750  0.43622997    -0.60700
In53       In  0.47487373  0.12684071  0.02861803     1.36900
C54         C  0.55329416  0.12286417  0.00190300     0.77000
O55         O  0.42727554  0.05240070  0.05517191    -0.61400
O56         O  0.40818862  0.05119196  0.00884959    -0.52300
C57         C  0.50199978  0.17184373  0.08284140     0.69700
O58         O  0.51805543  0.14297045  0.07275023    -0.47200
C59         C  0.46723973  0.20031036  0.99849153     0.74400
O60         O  0.55748865  0.14207848  0.02787691    -0.59000
O61         O  0.42810014  0.16370921  0.01227705    -0.49100
O62         O  0.50916747  0.10592997  0.98939318    -0.55500
C63         C  0.40158904  0.02527312  0.03273224     0.84600
O64         O  0.46933413  0.17511729  0.06600710    -0.57400
O65         O  0.50800123  0.19731330  0.99913085    -0.60700
In66       In  0.69427065  0.53842015  0.03052142     1.36900
C67         C  0.60752009  0.45859146  0.00548374     0.77000
O68         O  0.67074051  0.58961578  0.05540009    -0.61400
O69         O  0.68512104  0.60260714  0.00845044    -0.52300
C70         C  0.71317287  0.51657332  0.08587750     0.69700
O71         O  0.66765938  0.49652478  0.07468634    -0.47200
C72         C  0.77433402  0.54122318  0.00076827     0.74400
O73         O  0.62207766  0.45663580  0.03205025    -0.59000
O74         O  0.77793955  0.58261102  0.01098890    -0.49100
O75         O  0.63708968  0.50109377  0.99181236    -0.55500
C76         C  0.66833133  0.61271744  0.03210166     0.84600
O77         O  0.74965096  0.55036400  0.06927145    -0.57400
O78         O  0.73027102  0.50040321  0.00493500    -0.60700
C79         C  0.68271524  0.33093757  0.22590700     0.85900
C80         C  0.71514753  0.30839066  0.21226601    -0.54300
C81         C  0.71689659  0.30937290  0.18135809     0.08900
C82         C  0.68531447  0.33119242  0.16675049     0.19800
C83         C  0.70686090  0.38604303  0.21150419    -0.55000
C84         C  0.70752495  0.38578631  0.18057177     0.09000
C85         C  0.62804798  0.29881603  0.21079332    -0.54600
C86         C  0.62973628  0.29804972  0.17993700     0.09500
H87         H  0.73610075  0.29430232  0.22565762     0.14000
H88         H  0.68642045  0.33138213  0.14154854    -0.00200
H89         H  0.72072227  0.42185556  0.22437161     0.14300
H90         H  0.59140033  0.27784568  0.22327784     0.14100
C91         C  0.68093129  0.33042167  0.26137029     0.85900
C92         C  0.73416220  0.34587229  0.27642449    -0.54300
C93         C  0.73248117  0.34441521  0.30723657     0.08900
C94         C  0.67886957  0.32926650  0.32051562     0.19800
C95         C  0.64140889  0.27619646  0.27530449    -0.55000
C96         C  0.64027473  0.27610289  0.30619275     0.09000
C97         C  0.66560009  0.36833170  0.27556521    -0.54600
C98         C  0.66524165  0.36793271  0.30651672     0.09500
H99         H  0.76984919  0.35637707  0.26404660     0.14000
H100        H  0.67820146  0.32882293  0.34573263    -0.00200
H101        H  0.61675163  0.24107062  0.26212835     0.14300
H102        H  0.65686435  0.39387906  0.26252607     0.14100
In103      In  0.67215224  0.52652376  0.46102860     1.36900
C104        C  0.59187964  0.44777120  0.49066901     0.77000
O105        O  0.72740338  0.49755796  0.46845006    -0.61400
O106        O  0.75174703  0.57356850  0.48478605    -0.52300
C107        C  0.66485443  0.49214533  0.40432320     0.69700
O108        O  0.63097869  0.46796086  0.42460696    -0.47200
C109        C  0.64985209  0.60245523  0.46464739     0.74400
O110        O  0.58704080  0.46492597  0.46554824    -0.59000
O111        O  0.65210476  0.57851006  0.48759965    -0.49100
O112        O  0.63779747  0.47201389  0.50155539    -0.55500
C113        C  0.76144803  0.53708814  0.48277833     0.84600
O114        O  0.70286406  0.53618211  0.41272855    -0.57400
O115        O  0.66521407  0.59229292  0.44043085    -0.60700
In116      In  0.89267932  0.52439169  0.96268477     1.36900
C117        C  0.89847465  0.45067508  0.99336732     0.77000
O118        O  0.96704894  0.58652410  0.93942449    -0.61400
O119        O  0.96744107  0.57984834  0.98728976    -0.52300
C120        C  0.85477635  0.48044937  0.90857051     0.69700
O121        O  0.86271731  0.45821071  0.93035937    -0.47200
C122        C  0.81732102  0.53818287  0.98621178     0.74400
O123        O  0.91911996  0.46657227  0.96767750    -0.59000
O124        O  0.86328965  0.57651255  0.98176258    -0.49100
O125        O  0.87738667  0.47453453  0.00430876    -0.55500
C126        C  0.99370350  0.60041695  0.96357193     0.84600
O127        O  0.86731043  0.52719081  0.91413129    -0.57400
O128        O  0.81054068  0.49479228  0.97798120    -0.60700
In129      In  0.88584289  0.31911450  0.03287399     1.36900
C130        C  0.89621068  0.40565559  0.00822544     0.77000
O131        O  0.96020976  0.33945990  0.05802907    -0.61400
O132        O  0.95764293  0.32529244  0.01090027    -0.52300
C133        C  0.84597971  0.30402772  0.08844657     0.69700
O134        O  0.87985802  0.34849904  0.07834239    -0.47200
C135        C  0.80925337  0.24101282  0.00059613     0.74400
O136        O  0.87114232  0.38609366  0.03239113    -0.59000
O137        O  0.84449187  0.23621973  0.01374117    -0.49100
O138        O  0.91675287  0.38164748  0.99691713    -0.55500
C139        C  0.98529073  0.34175069  0.03455843     0.84600
O140        O  0.83491123  0.26638093  0.07072720    -0.57400
O141        O  0.81416145  0.28532696  0.00352584    -0.60700
In142      In  0.67623571  0.12108293  0.95920228     1.36900
C143        C  0.59656658  0.12108520  0.98722755     0.77000
O144        O  0.67507842  0.05063824  0.93886383    -0.61400
O145        O  0.65128160  0.04671420  0.98449763    -0.52300
C146        C  0.67107335  0.14895906  0.90264097     0.69700
O147        O  0.63171573  0.12299491  0.91941112    -0.47200
C148        C  0.76411381  0.19843307  0.98433121     0.74400
O149        O  0.59347329  0.10530249  0.96046609    -0.59000
O150        O  0.75663116  0.15296249  0.98102820    -0.49100
O151        O  0.63995980  0.13574739  0.00012480    -0.55500
C152        C  0.65494291  0.02275171  0.96210076     0.84600
O153        O  0.71418853  0.15882943  0.91435576    -0.57400
O154        O  0.72821809  0.20448264  0.97358027    -0.60700
C155        C  0.67551704  0.32392851  0.72589332     0.85900
C156        C  0.62051372  0.30198161  0.71120067    -0.54300
C157        C  0.62160792  0.30431136  0.68034036     0.08900
C158        C  0.67618862  0.32613074  0.66672335     0.19800
C159        C  0.69711882  0.29164314  0.71095636    -0.55000
C160        C  0.69654135  0.29248310  0.68000137     0.09000
C161        C  0.70922707  0.37949635  0.71210525    -0.54600
C162        C  0.70992913  0.38009967  0.68122376     0.09500
H163        H  0.58416071  0.28721865  0.72377470     0.14000
H164        H  0.67622655  0.32693634  0.64150910    -0.00200
H165        H  0.71004116  0.26880879  0.72339477     0.14300
H166        H  0.73094452  0.41514775  0.72532294     0.14100
C167        C  0.67488865  0.32324590  0.76144665     0.85900
C168        C  0.63512197  0.33632289  0.77557923    -0.54300
C169        C  0.63394692  0.33466935  0.80642025     0.08900
C170        C  0.67325296  0.32224139  0.82058696     0.19800
C171        C  0.72841099  0.36275394  0.77649033    -0.55000
C172        C  0.72665062  0.36314512  0.80744261     0.09000
C173        C  0.66044936  0.26992954  0.77566794    -0.54600
C174        C  0.66095164  0.27026240  0.80652168     0.09500
H175        H  0.61034798  0.34629983  0.76263350     0.14000
H176        H  0.67223304  0.32144077  0.84580402    -0.00200
H177        H  0.76439679  0.38772636  0.76401706     0.14300
H178        H  0.65245137  0.23555015  0.76283158     0.14100
In179      In  0.87802136  0.52976699  0.53010239     1.36900
C180        C  0.88448362  0.45225947  0.50523137     0.77000
O181        O  0.80880451  0.49672084  0.49881525    -0.61400
O182        O  0.84198346  0.57609938  0.51205298    -0.52300
C183        C  0.83352234  0.50663737  0.58455800     0.69700
O184        O  0.85566858  0.48414164  0.57326932    -0.47200
C185        C  0.98056299  0.59947282  0.53389287     0.74400
O186        O  0.85786995  0.44601370  0.52875444    -0.59000
O187        O  0.95401268  0.59667260  0.51086168    -0.49100
O188        O  0.90716977  0.49782751  0.49418097    -0.55500
C189        C  0.80595113  0.53741441  0.49776356     0.84600
O190        O  0.83632033  0.54331122  0.56866412    -0.57400
O191        O  0.95370556  0.57227013  0.55605309    -0.60700
In192      In  0.88375706  0.33080522  0.46071485     1.36900
C193        C  0.88701996  0.40946705  0.49094525     0.77000
O194        O  0.79886871  0.27373277  0.46899472    -0.61400
O195        O  0.85282462  0.25254074  0.48501040    -0.52300
C196        C  0.85423868  0.34040846  0.40536323     0.69700
O197        O  0.86654692  0.37364808  0.42610654    -0.47200
C198        C  0.98250147  0.35299397  0.46121234     0.74400
O199        O  0.91267705  0.41601680  0.46701836    -0.59000
O200        O  0.95840748  0.35146291  0.48501966    -0.49100
O201        O  0.86198011  0.36298044  0.50063670    -0.55500
C202        C  0.80554714  0.24102611  0.48325461     0.84600
O203        O  0.85805060  0.30140137  0.41271502    -0.57400
O204        O  0.95431094  0.33668720  0.43772428    -0.60700
In205      In  0.55447876  0.86511768  0.96081573     1.36900
C206        C  0.47535136  0.86504649  0.98928774     0.77000
O207        O  0.55990411  0.79225990  0.95844073    -0.61400
O208        O  0.58771670  0.83728589  0.99835290    -0.52300
C209        C  0.51104577  0.83583483  0.90581539     0.69700
O210        O  0.48642208  0.83492062  0.92920881    -0.47200
C211        C  0.62920405  0.96556554  0.96205991     0.74400
O212        O  0.50959013  0.90346961  0.97429656    -0.59000
O213        O  0.60819984  0.93925476  0.98564896    -0.49100
O214        O  0.48140306  0.82609617  0.99009965    -0.55500
C215        C  0.57768885  0.79599345  0.98479935     0.84600
O216        O  0.55934503  0.85251370  0.91035988    -0.57400
O217        O  0.61840979  0.93892720  0.93807089    -0.60700
In218      In  0.35387661  0.86949347  0.03126707     1.36900
C219        C  0.43175388  0.86597686  0.00393202     0.77000
O220        O  0.31016372  0.82420453  0.98989239    -0.61400
O221        O  0.26565469  0.81104615  0.02989890    -0.52300
C222        C  0.36474012  0.83841943  0.08575906     0.69700
O223        O  0.40297577  0.86781930  0.06889569    -0.47200
C224        C  0.37432724  0.96787631  0.03333342     0.74400
O225        O  0.39510625  0.82693005  0.01745842    -0.59000
O226        O  0.35634516  0.94009011  0.00990180    -0.49100
O227        O  0.42808128  0.90628795  0.00392395    -0.55500
C228        C  0.26633620  0.79779035  0.00280964     0.84600
O229        O  0.32024594  0.82714108  0.07547643    -0.57400
O230        O  0.37480222  0.94342026  0.05645112    -0.60700
In231      In  0.35176199  0.46071173  0.96223927     1.36900
C232        C  0.43497657  0.54159556  0.98868789     0.77000
O233        O  0.27614825  0.46137098  0.96162736    -0.61400
O234        O  0.28758119  0.42305577  0.99848215    -0.52300
C235        C  0.36038139  0.50055722  0.90698427     0.69700
O236        O  0.38678544  0.52689424  0.92955855    -0.47200
C237        C  0.37586321  0.38617991  0.96369444     0.74400
O238        O  0.43874099  0.51164230  0.97020971    -0.59000
O239        O  0.37128660  0.40722106  0.98725495    -0.49100
O240        O  0.38846233  0.52990975  0.99424036    -0.55500
C241        C  0.25913196  0.43826499  0.98655385     0.84600
O242        O  0.32873966  0.45249364  0.91260672    -0.57400
O243        O  0.36081629  0.39758091  0.93964769    -0.60700
In244      In  0.56499350  0.66648912  0.02861150     1.36900
C245        C  0.48122090  0.58662532  0.00220404     0.77000
O246        O  0.55973958  0.70820735  0.98727018    -0.61400
O247        O  0.59800257  0.75482754  0.02566923    -0.52300
C248        C  0.52505080  0.66008629  0.08377547     0.69700
O249        O  0.51058093  0.62143873  0.06645710    -0.47200
C250        C  0.64018794  0.64162300  0.03185620     0.74400
O251        O  0.47835807  0.62019729  0.01802725    -0.59000
O252        O  0.63214937  0.66016696  0.00815983    -0.49100
O253        O  0.52702378  0.59463286  0.99910046    -0.55500
C254        C  0.58024444  0.75267536  0.99934346     0.84600
O255        O  0.56228753  0.70281522  0.07327409    -0.57400
O256        O  0.61545062  0.64286796  0.05458863    -0.60700
In257      In  0.33965023  0.44631271  0.53066605     1.36900
C258        C  0.42439982  0.52636760  0.50476587     0.77000
O259        O  0.36103456  0.39332578  0.55530865    -0.61400
O260        O  0.34852826  0.38274058  0.50808161    -0.52300
C261        C  0.32513035  0.47155615  0.58604696     0.69700
O262        O  0.36973929  0.48959473  0.57411257    -0.47200
C263        C  0.25911694  0.44295884  0.50157145     0.74400
O264        O  0.41306986  0.52603125  0.53226064    -0.59000
O265        O  0.25573795  0.40196659  0.51236833    -0.49100
O266        O  0.39324673  0.48511515  0.49048323    -0.55500
C267        C  0.36409717  0.37127828  0.53181267     0.84600
O268        O  0.28722557  0.43775154  0.57016310    -0.57400
O269        O  0.30294579  0.48418755  0.50547340    -0.60700
In270      In  0.14321382  0.44921682  0.03167876     1.36900
C271        C  0.14807416  0.53242656  0.00603028     0.77000
O272        O  0.19105044  0.45779124  0.99045745    -0.61400
O273        O  0.19602108  0.41467874  0.02717401    -0.52300
C274        C  0.17774852  0.49204939  0.08599444     0.69700
O275        O  0.14553310  0.49796659  0.07049923    -0.47200
C276        C  0.04303369  0.37074065  0.03392661     0.74400
O277        O  0.18667942  0.53510767  0.01973964    -0.59000
O278        O  0.06872380  0.38502058  0.00956845    -0.49100
O279        O  0.10744547  0.48731991  0.00509037    -0.55500
C280        C  0.21322602  0.43515944  0.00148164     0.84600
O281        O  0.18928200  0.46017894  0.07479838    -0.57400
O282        O  0.07032320  0.39094143  0.05735343    -0.60700
In283      In  0.54838295  0.65685423  0.46420360     1.36900
C284        C  0.46917091  0.57205567  0.49046168     0.77000
O285        O  0.60972812  0.64561973  0.44129961    -0.61400
O286        O  0.60366438  0.63851092  0.48905092    -0.52300
C287        C  0.52474366  0.67141505  0.40841996     0.69700
O288        O  0.50129908  0.62761368  0.42169241    -0.47200
C289        C  0.55333601  0.74038846  0.48938468     0.74400
O290        O  0.47940971  0.57381574  0.46262979    -0.59000
O291        O  0.59417161  0.73770500  0.48574335    -0.49100
O292        O  0.49958145  0.61333634  0.50493558    -0.55500
C293        C  0.62281764  0.63208870  0.46518734     0.84600
O294        O  0.56227513  0.70777072  0.42321283    -0.57400
O295        O  0.51110794  0.70038373  0.48102496    -0.60700
C296        C  0.35425840  0.66174840  0.26444862     0.85900
C297        C  0.40790609  0.68333567  0.28054753    -0.54300
C298        C  0.40459880  0.68076504  0.31136529     0.08900
C299        C  0.34898183  0.65901622  0.32367552     0.19800
C300        C  0.31954024  0.60597496  0.27802021    -0.55000
C301        C  0.31609581  0.60511640  0.30888881     0.09000
C302        C  0.33133458  0.69364162  0.27830175    -0.54600
C303        C  0.32953851  0.69274106  0.30921191     0.09500
H304        H  0.44493523  0.69698479  0.26893468     0.14000
H305        H  0.34720522  0.65806506  0.34886829    -0.00200
H306        H  0.29891721  0.57036987  0.26468921     0.14300
H307        H  0.31899935  0.71629771  0.26517481     0.14100
C308        C  0.35748536  0.66361184  0.22878670     0.85900
C309        C  0.37123321  0.71706820  0.21476297    -0.54300
C310        C  0.37099172  0.71721216  0.18383244     0.08900
C311        C  0.36072375  0.66625655  0.16957063     0.19800
C312        C  0.30516939  0.62323908  0.21309572    -0.55000
C313        C  0.30780866  0.62420541  0.18228000     0.09000
C314        C  0.39910797  0.65282179  0.21482851    -0.54600
C315        C  0.40120802  0.65574440  0.18388782     0.09500
H316        H  0.37912909  0.75129606  0.22772322     0.14000
H317        H  0.36196942  0.66723328  0.14435168    -0.00200
H318        H  0.26922845  0.59607338  0.22496313     0.14300
H319        H  0.42502499  0.64452138  0.22785940     0.14100
In320      In  0.34182964  0.85981447  0.45823831     1.36900
C321        C  0.42439666  0.86375451  0.48510150     0.77000
O322        O  0.35184954  0.93324227  0.43616688    -0.61400
O323        O  0.36528150  0.93417389  0.48330692    -0.52300
C324        C  0.32806794  0.82266219  0.40212450     0.69700
O325        O  0.37280487  0.84943429  0.41430997    -0.47200
C326        C  0.25851910  0.78169406  0.48582987     0.74400
O327        O  0.42068465  0.86537690  0.45668798    -0.59000
O328        O  0.26080975  0.82441126  0.47990216    -0.49100
O329        O  0.38624678  0.86028744  0.49960829    -0.55500
C330        C  0.36859814  0.96000582  0.46001850     0.84600
O331        O  0.29028575  0.81700999  0.41818260    -0.57400
O332        O  0.29797822  0.77966282  0.47756668    -0.60700
In333      In  0.54743388  0.86273926  0.52852778     1.36900
C334        C  0.46886477  0.86475304  0.50031415     0.77000
O335        O  0.59686161  0.93773736  0.55425170    -0.61400
O336        O  0.61318308  0.93757583  0.50762025    -0.52300
C337        C  0.52330292  0.81892165  0.58276329     0.69700
O338        O  0.50316608  0.84391081  0.57200693    -0.47200
C339        C  0.55326127  0.78566196  0.50232471     0.74400
O340        O  0.46957038  0.85835221  0.52850373    -0.59000
O341        O  0.59405807  0.82698866  0.51134698    -0.49100
O342        O  0.50879028  0.87107869  0.48639154    -0.55500
C343        C  0.62197495  0.96404005  0.53146375     0.84600
O344        O  0.55855768  0.81938391  0.56663761    -0.57400
O345        O  0.51091288  0.78526086  0.50566308    -0.60700
In346      In  0.14180125  0.45310296  0.45808530     1.36900
C347        C  0.13993080  0.53191452  0.48564765     0.77000
O348        O  0.06540269  0.39312861  0.43577752    -0.61400
O349        O  0.06770397  0.39903307  0.48362748    -0.52300
C350        C  0.18434477  0.47616890  0.40312633     0.69700
O351        O  0.16418553  0.50001960  0.41526489    -0.47200
C352        C  0.21627722  0.44446949  0.48592155     0.74400
O353        O  0.12710369  0.52057337  0.45821158    -0.59000
O354        O  0.17057078  0.40504282  0.48209659    -0.49100
O355        O  0.15436955  0.50375970  0.49863708    -0.55500
C356        C  0.03997958  0.38007542  0.46023778     0.84600
O357        O  0.17948051  0.43780113  0.41815532    -0.57400
O358        O  0.22310946  0.48692629  0.47543291    -0.60700
In359      In  0.13932385  0.65370873  0.53044624     1.36900
C360        C  0.13857568  0.57448835  0.50146104     0.77000
O361        O  0.06235277  0.61853085  0.55493615    -0.61400
O362        O  0.06637839  0.65037723  0.51140080    -0.52300
C363        C  0.18100866  0.67446169  0.58573536     0.69700
O364        O  0.15140252  0.62837178  0.57618977    -0.47200
C365        C  0.21451114  0.73690888  0.50125052     0.74400
O366        O  0.15643321  0.58845997  0.52789158    -0.59000
O367        O  0.17440839  0.73631290  0.51148904    -0.49100
O368        O  0.11997164  0.60021959  0.48985906    -0.55500
C369        C  0.03808444  0.62530549  0.53375035     0.84600
O370        O  0.18574206  0.70989898  0.56796984    -0.57400
O371        O  0.21508544  0.69544271  0.50565338    -0.60700
In372      In  0.15218887  0.65813034  0.96393414     1.36900
C373        C  0.14996595  0.57776089  0.99195626     0.77000
O374        O  0.22484815  0.73893455  0.96136560    -0.61400
O375        O  0.18113031  0.71867313  0.00193896    -0.52300
C376        C  0.18288084  0.64531245  0.90952709     0.69700
O377        O  0.18685431  0.62455842  0.93347644    -0.47200
C378        C  0.05147897  0.63089287  0.96395553     0.74400
O379        O  0.11280686  0.57312733  0.97583730    -0.59000
O380        O  0.07709437  0.63668460  0.98789667    -0.49100
O381        O  0.18873048  0.62394609  0.99425782    -0.55500
C382        C  0.22213657  0.75163735  0.98814930     0.84600
O383        O  0.16364810  0.67423243  0.91333157    -0.57400
O384        O  0.07897140  0.64622244  0.94019992    -0.60700
C385        C  0.34638435  0.65576699  0.72536171     0.85900
C386        C  0.32511134  0.60040942  0.71176044    -0.54300
C387        C  0.32429738  0.59943823  0.68085753     0.08900
C388        C  0.34285702  0.65272909  0.66620159     0.19800
C389        C  0.40040977  0.69011004  0.70985376    -0.55000
C390        C  0.39795808  0.68902496  0.67899694     0.09000
C391        C  0.31111433  0.67463106  0.71118198    -0.54600
C392        C  0.30884194  0.67210794  0.68029110     0.09500
H393        H  0.31313512  0.56533954  0.72506512     0.14000
H394        H  0.34146172  0.65136878  0.64099895    -0.00200
H395        H  0.43711208  0.71436975  0.72191277     0.14300
H396        H  0.28984279  0.68867346  0.72417965     0.14100
C397        C  0.34889912  0.65788789  0.76085640     0.85900
C398        C  0.29575867  0.64159551  0.77631104    -0.54300
C399        C  0.29883857  0.64504414  0.80715634     0.08900
C400        C  0.35297164  0.66103501  0.81991985     0.19800
C401        C  0.38791725  0.71297504  0.77423047    -0.55000
C402        C  0.39083236  0.71362205  0.80515261     0.09000
C403        C  0.36570033  0.62127152  0.77541270    -0.54600
C404        C  0.36656459  0.62254857  0.80627480     0.09500
H405        H  0.25931642  0.62935589  0.76421408     0.14000
H406        H  0.35455304  0.66212180  0.84513437    -0.00200
H407        H  0.41136609  0.74801416  0.76073447     0.14300
H408        H  0.37487186  0.59577552  0.76279368     0.14100
C409        C  0.21076533  0.67218904  0.85583971    -0.26900
C410        C  0.20150220  0.63753811  0.87991737    -0.14900
C411        C  0.21499759  0.59877636  0.87634584     0.35700
C412        C  0.24192476  0.59874561  0.85037746    -0.26300
C413        C  0.25601318  0.63671496  0.82774899    -0.15600
C414        C  0.23842566  0.67277968  0.82988430     0.36800
N415        N  0.25136766  0.71320086  0.80774897    -0.89800
H416        H  0.19994921  0.70165695  0.85809501     0.17900
H417        H  0.25511891  0.57096965  0.84886831     0.17900
N418        N  0.20325508  0.56043679  0.89950550    -0.88800
H419        H  0.21616661  0.70587865  0.79782250     0.35300
H420        H  0.27466193  0.71267718  0.79029648     0.40300
H421        H  0.23862508  0.56415439  0.90675279     0.40000
H422        H  0.18015146  0.52326222  0.88988596     0.34900
C423        C  0.29830110  0.71765513  0.63633807    -0.26900
C424        C  0.27521424  0.68396490  0.66115628    -0.14900
C425        C  0.22000718  0.65469207  0.66377107     0.35700
C426        C  0.18882727  0.65482554  0.63975484    -0.26300
C427        C  0.21216331  0.68545503  0.61378140    -0.15600
C428        C  0.26727746  0.71940656  0.61279746     0.36800
N429        N  0.29182250  0.75171355  0.58658395    -0.89800
H430        H  0.34081709  0.74037131  0.63448870     0.17900
H431        H  0.14648296  0.62898337  0.64072247     0.17900
N432        N  0.19560021  0.62213984  0.68975764    -0.88800
H433        H  0.33277950  0.77201261  0.58871207     0.35300
H434        H  0.28117233  0.78014638  0.58598529     0.40300
H435        H  0.17177186  0.63419279  0.69990459     0.40000
H436        H  0.17120570  0.58357340  0.68235876     0.34900
C437        C  0.45608314  0.70335597  0.63543029    -0.26900
C438        C  0.44167914  0.72485368  0.65901437    -0.14900
C439        C  0.46126124  0.77921679  0.65965425     0.35700
C440        C  0.49224241  0.81055763  0.63547612    -0.26300
C441        C  0.50371294  0.78844906  0.61089453    -0.15600
C442        C  0.48744540  0.73479176  0.61135392     0.36800
N443        N  0.49864424  0.71157999  0.58612402    -0.89800
H444        H  0.44024499  0.66141696  0.63497008     0.17900
H445        H  0.50473444  0.85176851  0.63485091     0.17900
N446        N  0.44658328  0.80171461  0.68368198    -0.88800
H447        H  0.48133309  0.67117311  0.58932196     0.35300
H448        H  0.53928607  0.72711599  0.58575161     0.40300
H449        H  0.40605084  0.78650397  0.68204709     0.40000
H450        H  0.46472021  0.84226639  0.68084623     0.34900
C451        C  0.19322012  0.50724251  0.35013077    -0.26900
C452        C  0.21497423  0.49529901  0.37487163    -0.14900
C453        C  0.26896697  0.51167293  0.37450899     0.35700
C454        C  0.30081429  0.54329648  0.35076362    -0.26300
C455        C  0.27979582  0.55859159  0.32717586    -0.15600
C456        C  0.22507953  0.53839221  0.32603553     0.36800
N457        N  0.20308631  0.55418067  0.30215561    -0.89800
H458        H  0.15191603  0.49503467  0.35057650     0.17900
H459        H  0.34290083  0.55926291  0.35191854     0.17900
N460        N  0.29335668  0.50080501  0.39924644    -0.88800
H461        H  0.16281689  0.53841824  0.30561424     0.35300
H462        H  0.20662089  0.53794912  0.28197633     0.40300
H463        H  0.27488133  0.46016780  0.40170878     0.40000
H464        H  0.28767609  0.51637498  0.41910507     0.34900
C465        C  0.27899953  0.74294576  0.37121686    -0.26900
C466        C  0.32037144  0.79530422  0.37294469    -0.14900
C467        C  0.35834799  0.81600328  0.34943386     0.35700
C468        C  0.35733786  0.78215071  0.32699654    -0.26300
C469        C  0.31976564  0.72837797  0.32764356    -0.15600
C470        C  0.27892320  0.70916498  0.34924265     0.36800
N471        N  0.23799561  0.65519400  0.35013598    -0.89800
H472        H  0.24923175  0.72676596  0.38879380     0.17900
H473        H  0.38843876  0.79732349  0.31020671     0.17900
N474        N  0.39930560  0.87035153  0.34815338    -0.88800
H475        H  0.25489442  0.63262368  0.35452841     0.35300
H476        H  0.21984404  0.64508571  0.32886133     0.40300
H477        H  0.39328015  0.89233920  0.36424545     0.40000
H478        H  0.39621717  0.88501347  0.32717590     0.34900
C479        C  0.50407892  0.72527960  0.37486297    -0.26900
C480        C  0.50636739  0.67975041  0.37905824    -0.14900
C481        C  0.48274906  0.63913750  0.35753312     0.35700
C482        C  0.45391469  0.64288433  0.33348019    -0.26300
C483        C  0.44701845  0.68588613  0.33118799    -0.15600
C484        C  0.47334689  0.72801472  0.35161738     0.36800
N485        N  0.46691928  0.77241567  0.35034507    -0.89800
H486        H  0.52188847  0.75662429  0.39140610     0.17900
H487        H  0.43351068  0.61027028  0.31790586     0.17900
N488        N  0.48629282  0.59318106  0.36072986    -0.88800
H489        H  0.42723929  0.75931763  0.35392878     0.35300
H490        H  0.47723903  0.78867462  0.32860832     0.40300
H491        H  0.50338749  0.58910889  0.34102726     0.40000
H492        H  0.44809516  0.56072388  0.36233457     0.34900
C493        C  0.24547814  0.60643882  0.14047268    -0.26900
C494        C  0.26547042  0.58674021  0.16202746    -0.14900
C495        C  0.25174245  0.53388332  0.16062502     0.35700
C496        C  0.22116521  0.50267314  0.13612677    -0.26300
C497        C  0.20287151  0.52303290  0.11371030    -0.15600
C498        C  0.21361322  0.57509519  0.11675187     0.36800
N499        N  0.19532823  0.59839304  0.09528988    -0.89800
H500        H  0.25630090  0.64719092  0.14149588     0.17900
H501        H  0.21254021  0.46273582  0.13415878     0.17900
N502        N  0.26997431  0.51257840  0.18357947    -0.88800
H503        H  0.15417425  0.57701548  0.09516035     0.35300
H504        H  0.20935041  0.59726355  0.07377266     0.40300
H505        H  0.31100160  0.53241373  0.18253958     0.40000
H506        H  0.25646361  0.47315423  0.17916479     0.34900
C507        C  0.35393848  0.54115042  0.66180640    -0.26900
C508        C  0.31464208  0.55395630  0.66234509    -0.14900
C509        C  0.27359123  0.53135432  0.64067441     0.35700
C510        C  0.27570029  0.50064744  0.61729206    -0.26300
C511        C  0.31809267  0.49247286  0.61487900    -0.15600
C512        C  0.35643057  0.51117186  0.63820599     0.36800
N513        N  0.39900112  0.50150808  0.63819802    -0.89800
H514        H  0.38543833  0.55822857  0.67841170     0.17900
H515        H  0.24575220  0.48607017  0.59976266     0.17900
N516        N  0.23053701  0.54051518  0.64097154    -0.88800
H517        H  0.42339768  0.52050162  0.61966933     0.35300
H518        H  0.38338622  0.46113200  0.63621544     0.40300
H519        H  0.23223835  0.56182432  0.66011026     0.40000
H520        H  0.19582229  0.50410089  0.64310701     0.34900
C521        C  0.51744711  0.69953385  0.13222651    -0.26900
C522        C  0.49845082  0.65559840  0.11315837    -0.14900
C523        C  0.45152947  0.60889327  0.12130959     0.35700
C524        C  0.42287071  0.60822390  0.14667134    -0.26300
C525        C  0.44019842  0.65287912  0.16453202    -0.15600
C526        C  0.48881606  0.69848691  0.15797159     0.36800
N527        N  0.50716785  0.74447201  0.17639338    -0.89800
H528        H  0.55358625  0.73537251  0.12641713     0.17900
H529        H  0.38512671  0.57345277  0.15126030     0.17900
N530        N  0.43111859  0.56261477  0.10309753    -0.88800
H531        H  0.54300057  0.77513513  0.16820077     0.35300
H532        H  0.51451680  0.73550988  0.19810683     0.40300
H533        H  0.39357621  0.55247362  0.09555053     0.40000
H534        H  0.42733439  0.53221043  0.11685276     0.34900
C535        C  0.33199632  0.53439154  0.82852272    -0.26900
C536        C  0.37335572  0.58657538  0.82608419    -0.14900
C537        C  0.41401112  0.60717597  0.84766441     0.35700
C538        C  0.41019961  0.57678472  0.87293268    -0.26300
C539        C  0.36637712  0.52600855  0.87706281    -0.15600
C540        C  0.32808983  0.50381211  0.85373623     0.36800
N541        N  0.28341092  0.45172324  0.85570958    -0.89800
H542        H  0.30037452  0.51868549  0.81199418     0.17900
H543        H  0.44061935  0.59383870  0.89015000     0.17900
N544        N  0.45765314  0.65992559  0.84452905    -0.88800
H545        H  0.26181612  0.44898760  0.87501519     0.35300
H546        H  0.29681351  0.42551877  0.85767774     0.40300
H547        H  0.47804576  0.66123862  0.82488068     0.40000
H548        H  0.48393752  0.66971384  0.86257616     0.34900
C549        C  0.33242409  0.79799743  0.13656860    -0.26900
C550        C  0.37159267  0.81646067  0.11425060    -0.14900
C551        C  0.41437280  0.80873986  0.11798033     0.35700
C552        C  0.41592791  0.78083543  0.14308501    -0.26300
C553        C  0.37523950  0.75957630  0.16443779    -0.15600
C554        C  0.33335562  0.76925756  0.16154737     0.36800
N555        N  0.28906967  0.74731099  0.18181055    -0.89800
H556        H  0.29931019  0.80355573  0.13379013     0.17900
H557        H  0.44724500  0.77238009  0.14464509     0.17900
N558        N  0.45431085  0.82557529  0.09521014    -0.88800
H559        H  0.28922030  0.77847910  0.19276866     0.35300
H560        H  0.29159828  0.72420142  0.19868773     0.40300
H561        H  0.45431829  0.79257955  0.08711484     0.40000
H562        H  0.49073539  0.85032940  0.10545072     0.34900
C563        C  0.50926299  0.80571632  0.85261714    -0.26900
C564        C  0.48406371  0.81604662  0.87614706    -0.14900
C565        C  0.43113136  0.80216311  0.87210751     0.35700
C566        C  0.40327720  0.77389873  0.84639244    -0.26300
C567        C  0.42687296  0.75895728  0.82435190    -0.15600
C568        C  0.48141488  0.77730414  0.82673849     0.36800
N569        N  0.50898715  0.76463745  0.80484868    -0.89800
H570        H  0.55007641  0.81681067  0.85514932     0.17900
H571        H  0.36162853  0.76011395  0.84476214     0.17900
N572        N  0.40454999  0.81455408  0.89466005    -0.88800
H573        H  0.53853253  0.79989208  0.79538918     0.35300
H574        H  0.48475567  0.74243993  0.78700082     0.40300
H575        H  0.37199519  0.77950454  0.90224621     0.40000
H576        H  0.39074900  0.83686042  0.88437373     0.34900
C577        C  0.71940744  0.43758559  0.63821342    -0.26900
C578        C  0.74316936  0.42665403  0.66232754    -0.14900
C579        C  0.79834097  0.45125620  0.66339681     0.35700
C580        C  0.82829027  0.48108953  0.63849510    -0.26300
C581        C  0.80396583  0.48825639  0.61315567    -0.15600
C582        C  0.74929334  0.46860865  0.61379900     0.36800
N583        N  0.72254960  0.47581608  0.58888449    -0.89800
H584        H  0.67692656  0.41865347  0.63723479     0.17900
H585        H  0.87027886  0.49630976  0.63824320     0.17900
N586        N  0.82358302  0.44251649  0.68852719    -0.88800
H587        H  0.72903213  0.46015605  0.56935295     0.35300
H588        H  0.73872309  0.51606625  0.58563145     0.40300
H589        H  0.85034093  0.47897066  0.69796176     0.40000
H590        H  0.84499688  0.42619883  0.68029787     0.34900
C591        C  0.70478771  0.22671483  0.82935757    -0.26900
C592        C  0.65869490  0.22829077  0.82536402    -0.14900
C593        C  0.61459403  0.19666973  0.84355757     0.35700
C594        C  0.61823757  0.16670520  0.86664390    -0.26300
C595        C  0.66612332  0.16958163  0.87306794    -0.15600
C596        C  0.70920958  0.19788800  0.85331893     0.36800
N597        N  0.75777234  0.19929639  0.85844142    -0.89800
H598        H  0.73857494  0.25102159  0.81512894     0.17900
H599        H  0.58441685  0.14450553  0.88122924     0.17900
N600        N  0.56658743  0.19661315  0.84020758    -0.88800
H601        H  0.78576042  0.22285898  0.84220393     0.35300
H602        H  0.75033448  0.16127337  0.85530047     0.40300
H603        H  0.55399229  0.18736214  0.81771803     0.40000
H604        H  0.57449213  0.23436328  0.84478700     0.34900
C605        C  0.82352755  0.47929303  0.85556801    -0.26900
C606        C  0.83080688  0.45260167  0.87961850    -0.14900
C607        C  0.81170487  0.39832938  0.87645847     0.35700
C608        C  0.78220589  0.37172314  0.85078724    -0.26300
C609        C  0.77097173  0.39731042  0.82800447    -0.15600
C610        C  0.79381367  0.45248950  0.82977373     0.36800
N611        N  0.78622435  0.48246200  0.80686598    -0.89800
H612        H  0.83900397  0.52103889  0.85737440     0.17900
H613        H  0.76518813  0.32974606  0.84937709     0.17900
N614        N  0.81989792  0.36955950  0.89989792    -0.88800
H615        H  0.76688082  0.49963478  0.81683777     0.35300
H616        H  0.76207358  0.45896058  0.78930264     0.40300
H617        H  0.86002026  0.38268183  0.90032838     0.40000
H618        H  0.80055001  0.32953176  0.89471083     0.34900
C619        C  0.82618401  0.38909819  0.37274867    -0.26900
C620        C  0.83411980  0.34667781  0.37587722    -0.14900
C621        C  0.81769498  0.30934781  0.35230569     0.35700
C622        C  0.78940038  0.31283973  0.32760112    -0.26300
C623        C  0.77605431  0.35167861  0.32682559    -0.15600
C624        C  0.79655642  0.39124360  0.34878927     0.36800
N625        N  0.78537395  0.43253324  0.34753554    -0.89800
H626        H  0.83973578  0.41903261  0.39011262     0.17900
H627        H  0.77398065  0.28276179  0.31027141     0.17900
N628        N  0.82720343  0.26675727  0.35423957    -0.88800
H629        H  0.76623467  0.43161954  0.36760313     0.35300
H630        H  0.82112939  0.46824015  0.34669453     0.40300
H631        H  0.86789853  0.28283672  0.35315944     0.40000
H632        H  0.81110670  0.24202096  0.33547220     0.34900
C633        C  0.61583629  0.41811558  0.36875165    -0.26900
C634        C  0.66060138  0.46764458  0.37426930    -0.14900
C635        C  0.70217672  0.48835399  0.35299107     0.35700
C636        C  0.70008955  0.45676033  0.32855377    -0.26300
C637        C  0.65827117  0.40475479  0.32569040    -0.15600
C638        C  0.61478283  0.38632430  0.34525188     0.36800
N639        N  0.57006431  0.33443001  0.34277642    -0.89800
H640        H  0.58280360  0.40198179  0.38425390     0.17900
H641        H  0.73320072  0.47118661  0.31320630     0.10700
N642        N  0.74762769  0.53970304  0.35723176    -0.88800
H643        H  0.58245685  0.30810773  0.34727845     0.35300
H644        H  0.55581802  0.32880443  0.32054916     0.40300
H645        H  0.73542228  0.56675872  0.35476252     0.40000
H646        H  0.77532455  0.54810859  0.34017817     0.34900
C647        C  0.80616750  0.33607083  0.16306438    -0.26900
C648        C  0.75216315  0.29869524  0.16309033    -0.14900
C649        C  0.73201709  0.25764005  0.14164954     0.35700
C650        C  0.76507392  0.25686906  0.11939942    -0.26300
C651        C  0.81768450  0.29765469  0.11719440    -0.15600
C652        C  0.83893480  0.33634706  0.14002443     0.36800
N653        N  0.89318111  0.37718344  0.13917975    -0.89800
H654        H  0.82210664  0.36771231  0.17945288     0.17900
H655        H  0.74821785  0.22661527  0.10217615     0.17900
N656        N  0.67777237  0.21715733  0.14124118    -0.88800
H657        H  0.91072284  0.37608591  0.15954161     0.35300
H658        H  0.89493703  0.41313227  0.13803748     0.40300
H659        H  0.65515632  0.23428626  0.13760841     0.40000
H660        H  0.66856232  0.19865721  0.16236279     0.34900
C661        C  0.75926210  0.48177686  0.11540151    -0.26900
C662        C  0.72232010  0.49783471  0.11493690    -0.14900
C663        C  0.68761567  0.48517611  0.13981070     0.35700
C664        C  0.68703376  0.45221071  0.16277448    -0.26300
C665        C  0.72008558  0.43162289  0.16142335    -0.15600
C666        C  0.75776714  0.44805773  0.13821005     0.36800
N667        N  0.79274874  0.42842087  0.13693505    -0.89800
H668        H  0.78609318  0.49132127  0.09653721     0.17900
H669        H  0.65795681  0.43965558  0.18065505     0.17900
N670        N  0.65103238  0.50310280  0.14187399    -0.88800
H671        H  0.83139046  0.46045591  0.13716209     0.35300
H672        H  0.78667967  0.40879651  0.11635778     0.40300
H673        H  0.65756432  0.53016982  0.12480488     0.40000
H674        H  0.65876480  0.52386529  0.16217690     0.34900
C675        C  0.53043981  0.17880830  0.13656219    -0.26900
C676        C  0.52342969  0.20251771  0.11091511    -0.14900
C677        C  0.54322080  0.25697122  0.11098974     0.35700
C678        C  0.57417610  0.28734269  0.13552484    -0.26300
C679        C  0.58423089  0.26410618  0.16023749    -0.15600
C680        C  0.55919820  0.20884508  0.16161601     0.36800
N681        N  0.56453588  0.18245253  0.18735989    -0.89800
H682        H  0.51458022  0.13686901  0.13679450     0.17900
H683        H  0.59325958  0.32968265  0.13454276     0.17900
N684        N  0.53490537  0.28171705  0.08530680    -0.88800
H685        H  0.54797627  0.18990242  0.20610703     0.35300
H686        H  0.60442328  0.19757260  0.19180206     0.40300
H687        H  0.55492562  0.27821523  0.06684699     0.40000
H688        H  0.55160035  0.32186257  0.08917176     0.34900
C689        C  0.55052469  0.21288824  0.32553329    -0.26900
C690        C  0.60439808  0.23040255  0.32514100    -0.14900
C691        C  0.62533096  0.21223147  0.34726166     0.35700
C692        C  0.59373454  0.18233128  0.37156110    -0.26300
C693        C  0.54151521  0.17058971  0.37436607    -0.15600
C694        C  0.51877498  0.18359364  0.35024661     0.36800
N695        N  0.46461533  0.16944348  0.35145535    -0.89800
H696        H  0.53450049  0.22651206  0.30814325     0.17900
H697        H  0.61111940  0.17075026  0.38926025     0.17900
N698        N  0.67933815  0.22614624  0.34554777    -0.88800
H699        H  0.45349804  0.17896589  0.33105488     0.35300
H700        H  0.46156940  0.19272979  0.36806369     0.40300
H701        H  0.68334750  0.20877003  0.32597178     0.40000
H702        H  0.68917079  0.21044191  0.36385427     0.34900
C703        C  0.74208300  0.24519403  0.61418617    -0.26900
C704        C  0.70086571  0.19276147  0.61236600    -0.14900
C705        C  0.66407470  0.17135158  0.63642395     0.35700
C706        C  0.66667115  0.20380793  0.66013974    -0.26300
C707        C  0.70489625  0.25737326  0.66026414    -0.15600
C708        C  0.74411129  0.27766943  0.63765508     0.36800
N709        N  0.78589043  0.33134274  0.63767641    -0.89800
H710        H  0.77109284  0.26206447  0.59623806     0.17900
H711        H  0.63648040  0.18784789  0.67747806     0.17900
N712        N  0.62348849  0.11712715  0.63733441    -0.88800
H713        H  0.76976507  0.35508735  0.63534970     0.35300
H714        H  0.80523485  0.33918716  0.65855657     0.40300
H715        H  0.64086613  0.09442345  0.63503251     0.40000
H716        H  0.59743788  0.10908806  0.61935484     0.34900
C717        C  0.52728476  0.32790836  0.63594807    -0.26900
C718        C  0.51317688  0.29117131  0.61247320    -0.14900
C719        C  0.52786941  0.25302394  0.61449523     0.35700
C720        C  0.56025664  0.25548627  0.63853241    -0.26300
C721        C  0.57679501  0.29411500  0.66091402    -0.15600
C722        C  0.55883092  0.32962299  0.66029466     0.36800
N723        N  0.57499724  0.36900518  0.68344128    -0.89800
H724        H  0.51588228  0.35704634  0.63447267     0.17900
H725        H  0.57494802  0.22886344  0.63901608     0.17900
N726        N  0.51356736  0.21466893  0.59094084    -0.88800
H727        H  0.55811654  0.39184505  0.67971212     0.35300
H728        H  0.61572431  0.39430074  0.68171430     0.40300
H729        H  0.47281288  0.18925713  0.59200089     0.40000
H730        H  0.53026129  0.19170170  0.59499470     0.34900
C731        C  0.58894138  0.38454551  0.87028489    -0.26900
C732        C  0.53795267  0.34159289  0.87543027    -0.14900
C733        C  0.51501756  0.30142713  0.85323735     0.35700
C734        C  0.54517164  0.30303073  0.82827748    -0.26300
C735        C  0.59812959  0.34293884  0.82558367    -0.15600
C736        C  0.61926197  0.38496746  0.84599008     0.36800
N737        N  0.67259806  0.42707477  0.84290586    -0.89800
H738        H  0.60710093  0.41661436  0.88634791     0.17900
H739        H  0.52863413  0.27056123  0.81244394     0.17900
N740        N  0.46248585  0.25756039  0.85598161    -0.88800
H741        H  0.69287404  0.42896820  0.86274941     0.35300
H742        H  0.67251677  0.46203287  0.84095557     0.40300
H743        H  0.43678988  0.27160733  0.85792093     0.40000
H744        H  0.46006522  0.23655848  0.87553919     0.34900
loop_ 
_geom_bond_atom_site_label_1 
_geom_bond_atom_site_label_2 
_geom_bond_distance 
_geom_bond_site_symmetry_2 
_ccdc_geom_bond_type 
In1           O3   2.267       .  S
In1           O4   2.250       .  S
In1          O12   2.275       .  S
In1           O6   2.212       .  S
In1           O8   2.245       .  S
In1           O9   2.292       .  S
In1          O10   2.275   1_556  S
In1          O13   2.225       .  S
C2            O8   1.258       .  A
C2           O10   1.262   1_556  A
C2           C67   1.470   1_556  S
O3           C11   1.259       .  A
O4           C11   1.258       .  A
C5           O12   1.265       .  A
C5            O6   1.258       .  A
C5          C732   1.487       .  S
C7            O9   1.263       .  A
C7           O13   1.255       .  A
C7           C59   1.468       .  S
C11         C237   1.468       .  S
In14         O16   2.230       .  S
In14         O17   2.295       .  S
In14         O25   2.251       .  S
In14         O19   2.239       .  S
In14         O21   2.266       .  S
In14         O22   2.274       .  S
In14         O23   2.241       .  S
In14         O26   2.259       .  S
C15          O21   1.259       .  A
C15          O23   1.259       .  A
C15         C104   1.465       .  S
O16          C24   1.257       .  A
O17          C24   1.266       .  A
C18          O25   1.262       .  A
C18          O19   1.261       .  A
C18         C718   1.480       .  S
C20          O22   1.259       .  A
C20          O26   1.257       .  A
C20         C267   1.472       .  S
C24          C50   1.475       .  S
In27         O29   2.221       .  S
In27         O30   2.278       .  S
In27         O38   2.255       .  S
In27         O32   2.229       .  S
In27         O34   2.246       .  S
In27         O35   2.264       .  S
In27         O36   2.248       .  S
In27         O39   2.245       .  S
C28          O34   1.257       .  A
C28          O36   1.260       .  A
C28          C41   1.460       .  S
O29          C37   1.258       .  A
O30          C37   1.265       .  A
C31          O38   1.263       .  A
C31          O32   1.259       .  A
C31         C704   1.479       .  S
C33          O35   1.258       .  A
C33          O39   1.256       .  A
C33         C343   1.465   1_545  S
C37         C202   1.467       .  S
In40         O42   2.235       .  S
In40         O43   2.298       .  S
In40         O51   2.268       .  S
In40         O45   2.214       .  S
In40         O47   2.239       .  S
In40         O48   2.236       .  S
In40         O49   2.256       .  S
In40         O52   2.258       .  S
C41          O47   1.257       .  A
C41          O49   1.262       .  A
O42          C50   1.257       .  A
O43          C50   1.262       .  A
C44          O51   1.266       .  A
C44          O45   1.257       .  A
C44         C693   1.485       .  S
C46          O48   1.258       .  A
C46          O52   1.260       .  A
C46         C330   1.462   1_545  S
In53         O55   2.246       .  S
In53         O56   2.269       .  S
In53         O64   2.251       .  S
In53         O58   2.239       .  S
In53         O60   2.251       .  S
In53         O61   2.283       .  S
In53         O62   2.255   1_554  S
In53         O65   2.219   1_554  S
C54          O60   1.258       .  A
C54          O62   1.260   1_554  A
C54         C143   1.464   1_554  S
O55          C63   1.256       .  A
O56          C63   1.259       .  A
C57          O64   1.262       .  A
C57          O58   1.261       .  A
C57         C676   1.474       .  S
C59          O61   1.265   1_556  A
C59          O65   1.258       .  A
C63         C224   1.466   1_545  S
In66         O68   2.264       .  S
In66         O69   2.280       .  S
In66         O77   2.265       .  S
In66         O71   2.225       .  S
In66         O73   2.267       .  S
In66         O74   2.296       .  S
In66         O75   2.253   1_554  S
In66         O78   2.226       .  S
C67          O73   1.259       .  A
C67          O75   1.260   1_554  A
O68          C76   1.257       .  A
O69          C76   1.259       .  A
C70          O77   1.264       .  A
C70          O71   1.261       .  A
C70         C662   1.476       .  S
C72          O74   1.265       .  A
C72          O78   1.257       .  A
C72         C122   1.473   1_554  S
C76         C250   1.476       .  S
C79          C80   1.553       .  S
C79          C85   1.545       .  S
C79          C83   1.547       .  S
C79          C91   1.565       .  S
C80          H87   1.085       .  S
C80          C81   1.364       .  D
C81          C82   1.529       .  S
C81         C648   1.481       .  S
C82          C86   1.534       .  S
C82          C84   1.532       .  S
C82          H88   1.112       .  S
C83          H89   1.085       .  S
C83          C84   1.364       .  D
C84         C665   1.479       .  S
C85          H90   1.084       .  S
C85          C86   1.362       .  D
C86         C679   1.479       .  S
C91          C92   1.547       .  S
C91          C97   1.552       .  S
C91          C95   1.551       .  S
C92          H99   1.085       .  S
C92          C93   1.359       .  D
C93          C94   1.530       .  S
C93         C623   1.473       .  S
C94          C98   1.532       .  S
C94          C96   1.532       .  S
C94         H100   1.112       .  S
C95         H101   1.085       .  S
C95          C96   1.362       .  D
C96         C690   1.479       .  S
C97         H102   1.085       .  S
C97          C98   1.365       .  D
C98         C637   1.483       .  S
In103       O105   2.235       .  S
In103       O106   2.284       .  S
In103       O114   2.277       .  S
In103       O108   2.217       .  S
In103       O110   2.236       .  S
In103       O111   2.255       .  S
In103       O112   2.271       .  S
In103       O115   2.261       .  S
C104        O110   1.257       .  A
C104        O112   1.261       .  A
O105        C113   1.256       .  A
O106        C113   1.263       .  A
C107        O114   1.266       .  A
C107        O108   1.258       .  A
C107        C634   1.488       .  S
C109        O111   1.258       .  A
C109        O115   1.259       .  A
C109        C293   1.467       .  S
C113        C189   1.470       .  S
In116       O118   2.266       .  S
In116       O119   2.245       .  S
In116       O127   2.283       .  S
In116       O121   2.215       .  S
In116       O123   2.241       .  S
In116       O124   2.299       .  S
In116       O125   2.253   1_556  S
In116       O128   2.227       .  S
C117        O123   1.259       .  A
C117        O125   1.261   1_556  A
C117        C130   1.461   1_556  S
O118        C126   1.261       .  A
O119        C126   1.259       .  A
C120        O127   1.266       .  A
C120        O121   1.255       .  A
C120        C606   1.488       .  S
C122        O124   1.263       .  A
C122        O128   1.255       .  A
C126        C378   1.469   1_655  S
In129       O131   2.253       .  S
In129       O132   2.262       .  S
In129       O140   2.256       .  S
In129       O134   2.233       .  S
In129       O136   2.251       .  S
In129       O137   2.278       .  S
In129       O138   2.248   1_554  S
In129       O141   2.234       .  S
C130        O136   1.258       .  A
C130        O138   1.259   1_554  A
O131        C139   1.257       .  A
O132        C139   1.259       .  A
C133        O140   1.264       .  A
C133        O134   1.260       .  A
C133        C651   1.479       .  S
C135        O137   1.265       .  A
C135        O141   1.258       .  A
C135        C148   1.471   1_554  S
C139        C276   1.468   1_655  S
In142       O144   2.267       .  S
In142       O145   2.236       .  S
In142       O153   2.267       .  S
In142       O147   2.211       .  S
In142       O149   2.250       .  S
In142       O150   2.274       .  S
In142       O151   2.259   1_556  S
In142       O154   2.236       .  S
C143        O149   1.257       .  A
C143        O151   1.260   1_556  A
O144        C152   1.258       .  A
O145        C152   1.257       .  A
C146        O153   1.264       .  A
C146        O147   1.256       .  A
C146        C595   1.479       .  S
C148        O150   1.263       .  A
C148        O154   1.259       .  A
C152        C211   1.463   1_545  S
C155        C156   1.551       .  S
C155        C161   1.549       .  S
C155        C159   1.553       .  S
C155        C167   1.568       .  S
C156        H163   1.085       .  S
C156        C157   1.362       .  D
C157        C158   1.524       .  S
C157        C721   1.474       .  S
C158        C162   1.528       .  S
C158        C160   1.527       .  S
C158        H164   1.112       .  S
C159        H165   1.085       .  S
C159        C160   1.365       .  D
C160        C707   1.478       .  S
C161        H166   1.085       .  S
C161        C162   1.362       .  D
C162        C578   1.475       .  S
C167        C168   1.553       .  S
C167        C173   1.547       .  S
C167        C171   1.554       .  S
C168        H175   1.085       .  S
C168        C169   1.361       .  D
C169        C170   1.526       .  S
C169        C735   1.476       .  S
C170        C174   1.528       .  S
C170        C172   1.530       .  S
C170        H176   1.112       .  S
C171        H177   1.085       .  S
C171        C172   1.366       .  D
C172        C609   1.484       .  S
C173        H178   1.085       .  S
C173        C174   1.361       .  D
C174        C592   1.472       .  S
In179       O181   2.235       .  S
In179       O182   2.279       .  S
In179       O190   2.262       .  S
In179       O184   2.230       .  S
In179       O186   2.246       .  S
In179       O187   2.267       .  S
In179       O188   2.242       .  S
In179       O191   2.239       .  S
C180        O186   1.259       .  A
C180        O188   1.260       .  A
C180        C193   1.459       .  S
O181        C189   1.258       .  A
O182        C189   1.263       .  A
C183        O190   1.262       .  A
C183        O184   1.259       .  A
C183        C581   1.472       .  S
C185        O187   1.260       .  A
C185        O191   1.257       .  A
C185        C369   1.466   1_655  S
In192       O194   2.225       .  S
In192       O195   2.282       .  S
In192       O203   2.267       .  S
In192       O197   2.208       .  S
In192       O199   2.238       .  S
In192       O200   2.240       .  S
In192       O201   2.256       .  S
In192       O204   2.252       .  S
C193        O199   1.257       .  A
C193        O201   1.260       .  A
O194        C202   1.257       .  A
O195        C202   1.263       .  A
C196        O203   1.265       .  A
C196        O197   1.257       .  A
C196        C620   1.480       .  S
C198        O200   1.259       .  A
C198        O204   1.260       .  A
C198        C356   1.463   1_655  S
In205       O207   2.260       .  S
In205       O208   2.286       .  S
In205       O216   2.274       .  S
In205       O210   2.224       .  S
In205       O212   2.238       .  S
In205       O213   2.233       .  S
In205       O214   2.264       .  S
In205       O217   2.265       .  S
C206        O212   1.256       .  A
C206        O214   1.262       .  A
C206        C219   1.460   1_556  S
O207        C215   1.256       .  A
O208        C215   1.258       .  A
C209        O216   1.267       .  A
C209        O210   1.258       .  A
C209        C564   1.487       .  S
C211        O213   1.257       .  A
C211        O217   1.261       .  A
C215        C254   1.476       .  S
In218       O220   2.241   1_554  S
In218       O221   2.276       .  S
In218       O229   2.255       .  S
In218       O223   2.222       .  S
In218       O225   2.254       .  S
In218       O226   2.268       .  S
In218       O227   2.240       .  S
In218       O230   2.250       .  S
C219        O225   1.259       .  A
C219        O227   1.260       .  A
O220        C228   1.257   1_556  A
O221        C228   1.262       .  A
C222        O229   1.265       .  A
C222        O223   1.258       .  A
C222        C550   1.476       .  S
C224        O226   1.258       .  A
C224        O230   1.256       .  A
C228        C382   1.472   1_554  S
In231       O233   2.254       .  S
In231       O234   2.289       .  S
In231       O242   2.267       .  S
In231       O236   2.219       .  S
In231       O238   2.245       .  S
In231       O239   2.243       .  S
In231       O240   2.261       .  S
In231       O243   2.265       .  S
C232        O238   1.257       .  A
C232        O240   1.261       .  A
C232        C245   1.462   1_556  S
O233        C241   1.256       .  A
O234        C241   1.259       .  A
C235        O242   1.267       .  A
C235        O236   1.259       .  A
C235        C539   1.485       .  S
C237        O239   1.258       .  A
C237        O243   1.261       .  A
C241        C280   1.474   1_556  S
In244       O246   2.253   1_554  S
In244       O247   2.288       .  S
In244       O255   2.271       .  S
In244       O249   2.227       .  S
In244       O251   2.250       .  S
In244       O252   2.284       .  S
In244       O253   2.249   1_554  S
In244       O256   2.263       .  S
C245        O251   1.259       .  A
C245        O253   1.260   1_554  A
O246        C254   1.256       .  A
O247        C254   1.261   1_554  A
C248        O255   1.266       .  A
C248        O249   1.259       .  A
C248        C522   1.488       .  S
C250        O252   1.259       .  A
C250        O256   1.256       .  A
In257       O259   2.257       .  S
In257       O260   2.274       .  S
In257       O268   2.263       .  S
In257       O262   2.223       .  S
In257       O264   2.247       .  S
In257       O265   2.279       .  S
In257       O266   2.261       .  S
In257       O269   2.224       .  S
C258        O264   1.258       .  A
C258        O266   1.261       .  A
C258        C284   1.466       .  S
O259        C267   1.256       .  A
O260        C267   1.258       .  A
C261        O268   1.265       .  A
C261        O262   1.259       .  A
C261        C511   1.479       .  S
C263        O265   1.264       .  A
C263        O269   1.257       .  A
C263        C352   1.465       .  S
In270       O272   2.241   1_554  S
In270       O273   2.284       .  S
In270       O281   2.262       .  S
In270       O275   2.225       .  S
In270       O277   2.253       .  S
In270       O278   2.264       .  S
In270       O279   2.240       .  S
In270       O282   2.259       .  S
C271        O277   1.259       .  A
C271        O279   1.260       .  A
C271        C373   1.459   1_554  S
O272        C280   1.256   1_556  A
O273        C280   1.263       .  A
C274        O281   1.265       .  A
C274        O275   1.257       .  A
C274        C497   1.480       .  S
C276        O278   1.258       .  A
C276        O282   1.257       .  A
In283       O285   2.255       .  S
In283       O286   2.258       .  S
In283       O294   2.254       .  S
In283       O288   2.227       .  S
In283       O290   2.255       .  S
In283       O291   2.275       .  S
In283       O292   2.251       .  S
In283       O295   2.223       .  S
C284        O290   1.260       .  A
C284        O292   1.260       .  A
O285        C293   1.257       .  A
O286        C293   1.258       .  A
C287        O294   1.262       .  A
C287        O288   1.261       .  A
C287        C480   1.473       .  S
C289        O291   1.265       .  A
C289        O295   1.259       .  A
C289        C339   1.466       .  S
C296        C297   1.546       .  S
C296        C302   1.552       .  S
C296        C300   1.553       .  S
C296        C308   1.575       .  S
C297        H304   1.084       .  S
C297        C298   1.362       .  D
C298        C299   1.529       .  S
C298        C483   1.472       .  S
C299        C303   1.530       .  S
C299        C301   1.529       .  S
C299        H305   1.112       .  S
C300        H306   1.084       .  S
C300        C301   1.364       .  D
C301        C455   1.480       .  S
C302        H307   1.084       .  S
C302        C303   1.364       .  D
C303        C469   1.481       .  S
C308        C309   1.552       .  S
C308        C314   1.556       .  S
C308        C312   1.551       .  S
C309        H316   1.085       .  S
C309        C310   1.364       .  D
C310        C311   1.522       .  S
C310        C553   1.473       .  S
C311        C315   1.524       .  S
C311        C313   1.523       .  S
C311        H317   1.113       .  S
C312        H318   1.084       .  S
C312        C313   1.361       .  D
C313        C494   1.474       .  S
C314        H319   1.084       .  S
C314        C315   1.366       .  D
C315        C525   1.477       .  S
In320       O322   2.267       .  S
In320       O323   2.242       .  S
In320       O331   2.251       .  S
In320       O325   2.236       .  S
In320       O327   2.260       .  S
In320       O328   2.279       .  S
In320       O329   2.243       .  S
In320       O332   2.215       .  S
C321        O327   1.260       .  A
C321        O329   1.259       .  A
C321        C334   1.465       .  S
O322        C330   1.257       .  A
O323        C330   1.255       .  A
C324        O331   1.263       .  A
C324        O325   1.262       .  A
C324        C466   1.477       .  S
C326        O328   1.265       .  A
C326        O332   1.258       .  A
C326        C365   1.466       .  S
In333       O335   2.247       .  S
In333       O336   2.266       .  S
In333       O344   2.242       .  S
In333       O338   2.228       .  S
In333       O340   2.245       .  S
In333       O341   2.269       .  S
In333       O342   2.260       .  S
In333       O345   2.223       .  S
C334        O340   1.259       .  A
C334        O342   1.260       .  A
O335        C343   1.256       .  A
O336        C343   1.259       .  A
C337        O344   1.261       .  A
C337        O338   1.261       .  A
C337        C441   1.468       .  S
C339        O341   1.265       .  A
C339        O345   1.259       .  A
In346       O348   2.261       .  S
In346       O349   2.246       .  S
In346       O357   2.258       .  S
In346       O351   2.235       .  S
In346       O353   2.265       .  S
In346       O354   2.269       .  S
In346       O355   2.245       .  S
In346       O358   2.215       .  S
C347        O353   1.261       .  A
C347        O355   1.258       .  A
C347        C360   1.467       .  S
O348        C356   1.258       .  A
O349        C356   1.256       .  A
C350        O357   1.262       .  A
C350        O351   1.261       .  A
C350        C452   1.473       .  S
C352        O354   1.266       .  A
C352        O358   1.260       .  A
In359       O361   2.240       .  S
In359       O362   2.273       .  S
In359       O370   2.249       .  S
In359       O364   2.244       .  S
In359       O366   2.251       .  S
In359       O367   2.277       .  S
In359       O368   2.266       .  S
In359       O371   2.217       .  S
C360        O366   1.258       .  A
C360        O368   1.260       .  A
O361        C369   1.256       .  A
O362        C369   1.260       .  A
C363        O370   1.261       .  A
C363        O364   1.261       .  A
C363        C427   1.475       .  S
C365        O367   1.265       .  A
C365        O371   1.258       .  A
In372       O374   2.258       .  S
In372       O375   2.282   1_556  S
In372       O383   2.270       .  S
In372       O377   2.222       .  S
In372       O379   2.235       .  S
In372       O380   2.243       .  S
In372       O381   2.264       .  S
In372       O384   2.266       .  S
C373        O379   1.256       .  A
C373        O381   1.262       .  A
O374        C382   1.256       .  A
O375        C382   1.258   1_554  A
C376        O383   1.266       .  A
C376        O377   1.258       .  A
C376        C410   1.484       .  S
C378        O380   1.258       .  A
C378        O384   1.261       .  A
C385        C386   1.551       .  S
C385        C391   1.550       .  S
C385        C389   1.547       .  S
C385        C397   1.567       .  S
C386        H393   1.085       .  S
C386        C387   1.363       .  D
C387        C388   1.528       .  S
C387        C508   1.479       .  S
C388        C392   1.531       .  S
C388        C390   1.528       .  S
C388        H394   1.112       .  S
C389        H395   1.085       .  S
C389        C390   1.362       .  D
C390        C438   1.473       .  S
C391        H396   1.085       .  S
C391        C392   1.364       .  D
C392        C424   1.480       .  S
C397        C398   1.549       .  S
C397        C403   1.551       .  S
C397        C401   1.556       .  S
C398        H405   1.085       .  S
C398        C399   1.363       .  D
C399        C400   1.526       .  S
C399        C413   1.477       .  S
C400        C404   1.523       .  S
C400        C402   1.524       .  S
C400        H406   1.113       .  S
C401        H407   1.085       .  S
C401        C402   1.366       .  D
C402        C567   1.481       .  S
C403        H408   1.085       .  S
C403        C404   1.361       .  D
C404        C536   1.473       .  S
C409        C410   1.404       .  A
C409        C414   1.405       .  A
C409        H416   1.084       .  S
C410        C411   1.413       .  A
C411        C412   1.398       .  A
C411        N418   1.433       .  S
C412        C413   1.399       .  A
C412        H417   1.085       .  S
C413        C414   1.419       .  A
C414        N415   1.438       .  S
N415        H419   1.045       .  S
N415        H420   1.041       .  S
N418        H421   1.046       .  S
N418        H422   1.045       .  S
C423        C424   1.401       .  A
C423        C428   1.404       .  A
C423        H430   1.084       .  S
C424        C425   1.408       .  A
C425        C426   1.406       .  A
C425        N432   1.432       .  S
C426        C427   1.404       .  A
C426        H431   1.084       .  S
C427        C428   1.411       .  A
C428        N429   1.438       .  S
N429        H433   1.045       .  S
N429        H434   1.046       .  S
N432        H435   1.046       .  S
N432        H436   1.045       .  S
C437        C438   1.401       .  A
C437        C442   1.404       .  A
C437        H444   1.084       .  S
C438        C439   1.410       .  A
C439        C440   1.403       .  A
C439        N446   1.438       .  S
C440        C441   1.400       .  A
C440        H445   1.084       .  S
C441        C442   1.411       .  A
C442        N443   1.438       .  S
N443        H447   1.046       .  S
N443        H448   1.045       .  S
N446        H449   1.046       .  S
N446        H450   1.045       .  S
C451        C452   1.402       .  A
C451        C456   1.407       .  A
C451        H458   1.084       .  S
C452        C453   1.414       .  A
C453        C454   1.399       .  A
C453        N460   1.433       .  S
C454        C455   1.402       .  A
C454        H459   1.084       .  S
C455        C456   1.411       .  A
C456        N457   1.437       .  S
N457        H461   1.045       .  S
N457        H462   1.045       .  S
N460        H463   1.045       .  S
N460        H464   1.046       .  S
C465        C466   1.403       .  A
C465        C470   1.398       .  A
C465        H472   1.084       .  S
C466        C467   1.418       .  A
C467        C468   1.403       .  A
C467        N474   1.439       .  S
C468        C469   1.402       .  A
C468        H473   1.084       .  S
C469        C470   1.411       .  A
C470        N471   1.430       .  S
N471        H475   1.043       .  S
N471        H476   1.045       .  S
N474        H477   1.043       .  S
N474        H478   1.046       .  S
C479        C480   1.404       .  A
C479        C484   1.400       .  A
C479        H486   1.084       .  S
C480        C481   1.408       .  A
C481        C482   1.401       .  A
C481        N488   1.432       .  S
C482        C483   1.401       .  A
C482        H487   1.084       .  S
C483        C484   1.409       .  A
C484        N485   1.431       .  S
N485        H489   1.044       .  S
N485        H490   1.046       .  S
N488        H491   1.046       .  S
N488        H492   1.046       .  S
C493        C494   1.397       .  A
C493        C498   1.396       .  A
C493        H500   1.084       .  S
C494        C495   1.409       .  A
C495        C496   1.408       .  A
C495        N502   1.438       .  S
C496        C497   1.405       .  A
C496        H501   1.083       .  S
C497        C498   1.419       .  A
C498        N499   1.433       .  S
N499        H503   1.046       .  S
N499        H504   1.045       .  S
N502        H505   1.044       .  S
N502        H506   1.045       .  S
C507        C508   1.402       .  A
C507        C512   1.399       .  A
C507        H514   1.084       .  S
C508        C509   1.414       .  A
C509        C510   1.403       .  A
C509        N516   1.437       .  S
C510        C511   1.403       .  A
C510        H515   1.084       .  S
C511        C512   1.416       .  A
C512        N513   1.433       .  S
N513        H517   1.044       .  S
N513        H518   1.046       .  S
N516        H519   1.042       .  S
N516        H520   1.045       .  S
C521        C522   1.407       .  A
C521        C526   1.410       .  A
C521        H528   1.083       .  S
C522        C523   1.416       .  A
C523        C524   1.401       .  A
C523        N530   1.433       .  S
C524        C525   1.397       .  A
C524        H529   1.082       .  S
C525        C526   1.410       .  A
C526        N527   1.437       .  S
N527        H531   1.046       .  S
N527        H532   1.046       .  S
N530        H533   1.046       .  S
N530        H534   1.046       .  S
C535        C536   1.402       .  A
C535        C540   1.402       .  A
C535        H542   1.084       .  S
C536        C537   1.403       .  A
C537        C538   1.401       .  A
C537        N544   1.437       .  S
C538        C539   1.408       .  A
C538        H543   1.083       .  S
C539        C540   1.417       .  A
C540        N541   1.431       .  S
N541        H545   1.044       .  S
N541        H546   1.046       .  S
N544        H547   1.047       .  S
N544        H548   1.044       .  S
C549        C550   1.402       .  A
C549        C554   1.402       .  A
C549        H556   1.084       .  S
C550        C551   1.411       .  A
C551        C552   1.397       .  A
C551        N558   1.433       .  S
C552        C553   1.400       .  A
C552        H557   1.083       .  S
C553        C554   1.419       .  A
C554        N555   1.438       .  S
N555        H559   1.045       .  S
N555        H560   1.041       .  S
N558        H561   1.046       .  S
N558        H562   1.045       .  S
C563        C564   1.405       .  A
C563        C568   1.407       .  A
C563        H570   1.084       .  S
C564        C565   1.413       .  A
C565        C566   1.400       .  A
C565        N572   1.433       .  S
C566        C567   1.400       .  A
C566        H571   1.085       .  S
C567        C568   1.420       .  A
C568        N569   1.438       .  S
N569        H573   1.046       .  S
N569        H574   1.040       .  S
N572        H575   1.046       .  S
N572        H576   1.045       .  S
C577        C578   1.402       .  A
C577        C582   1.398       .  A
C577        H584   1.084       .  S
C578        C579   1.407       .  A
C579        C580   1.404       .  A
C579        N586   1.432       .  S
C580        C581   1.403       .  A
C580        H585   1.084       .  S
C581        C582   1.412       .  A
C582        N583   1.433       .  S
N583        H587   1.045       .  S
N583        H588   1.046       .  S
N586        H589   1.045       .  S
N586        H590   1.045       .  S
C591        C592   1.403       .  A
C591        C596   1.408       .  A
C591        H598   1.084       .  S
C592        C593   1.405       .  A
C593        C594   1.392       .  A
C593        N600   1.431       .  S
C594        C595   1.407       .  A
C594        H599   1.084       .  S
C595        C596   1.412       .  A
C596        N597   1.437       .  S
N597        H601   1.046       .  S
N597        H602   1.045       .  S
N600        H603   1.045       .  S
N600        H604   1.043       .  S
C605        C606   1.405       .  A
C605        C610   1.407       .  A
C605        H612   1.083       .  S
C606        C607   1.417       .  A
C607        C608   1.399       .  A
C607        N614   1.439       .  S
C608        C609   1.399       .  A
C608        H613   1.082       .  S
C609        C610   1.420       .  A
C610        N611   1.439       .  S
N611        H615   1.044       .  S
N611        H616   1.042       .  S
N614        H617   1.044       .  S
N614        H618   1.047       .  S
C619        C620   1.406       .  A
C619        C624   1.395       .  A
C619        H626   1.084       .  S
C620        C621   1.413       .  A
C621        C622   1.409       .  A
C621        N628   1.437       .  S
C622        C623   1.403       .  A
C622        H627   1.084       .  S
C623        C624   1.400       .  A
C624        N625   1.430       .  S
N625        H629   1.045       .  S
N625        H630   1.046       .  S
N628        H631   1.045       .  S
N628        H632   1.046       .  S
C633        C634   1.406       .  A
C633        C638   1.395       .  A
C633        H640   1.084       .  S
C634        C635   1.414       .  A
C635        C636   1.412       .  A
C635        N642   1.437       .  S
C636        C637   1.404       .  A
C636        H641   1.084       .  S
C637        C638   1.408       .  A
C638        N639   1.430       .  S
N639        H643   1.042       .  S
N639        H644   1.045       .  S
N642        H645   1.045       .  S
N642        H646   1.046       .  S
C647        C648   1.402       .  A
C647        C652   1.405       .  A
C647        H654   1.084       .  S
C648        C649   1.412       .  A
C649        C650   1.398       .  A
C649        N656   1.429       .  S
C650        C651   1.402       .  A
C650        H655   1.084       .  S
C651        C652   1.411       .  A
C652        N653   1.432       .  S
N653        H657   1.045       .  S
N653        H658   1.046       .  S
N656        H659   1.043       .  S
N656        H660   1.044       .  S
C661        C662   1.404       .  A
C661        C666   1.404       .  A
C661        H668   1.084       .  S
C662        C663   1.417       .  A
C663        C664   1.403       .  A
C663        N670   1.439       .  S
C664        C665   1.401       .  A
C664        H669   1.084       .  S
C665        C666   1.406       .  A
C666        N667   1.431       .  S
N667        H671   1.047       .  S
N667        H672   1.044       .  S
N670        H673   1.044       .  S
N670        H674   1.045       .  S
C675        C676   1.403       .  A
C675        C680   1.400       .  A
C675        H682   1.084       .  S
C676        C677   1.411       .  A
C677        C678   1.405       .  A
C677        N684   1.438       .  S
C678        C679   1.401       .  A
C678        H683   1.084       .  S
C679        C680   1.415       .  A
C680        N681   1.433       .  S
N681        H685   1.044       .  S
N681        H686   1.044       .  S
N684        H687   1.046       .  S
N684        H688   1.046       .  S
C689        C690   1.402       .  A
C689        C694   1.410       .  A
C689        H696   1.084       .  S
C690        C691   1.404       .  A
C691        C692   1.400       .  A
C691        N698   1.435       .  S
C692        C693   1.407       .  A
C692        H697   1.084       .  S
C693        C694   1.414       .  A
C694        N695   1.437       .  S
N695        H699   1.045       .  S
N695        H700   1.045       .  S
N698        H701   1.046       .  S
N698        H702   1.045       .  S
C703        C704   1.403       .  A
C703        C708   1.398       .  A
C703        H710   1.084       .  S
C704        C705   1.417       .  A
C705        C706   1.401       .  A
C705        N712   1.433       .  S
C706        C707   1.401       .  A
C706        H711   1.084       .  S
C707        C708   1.411       .  A
C708        N709   1.431       .  S
N709        H713   1.043       .  S
N709        H714   1.045       .  S
N712        H715   1.046       .  S
N712        H716   1.044       .  S
C717        C718   1.405       .  A
C717        C722   1.406       .  A
C717        H724   1.084       .  S
C718        C719   1.414       .  A
C719        C720   1.405       .  A
C719        N726   1.438       .  S
C720        C721   1.399       .  A
C720        H725   1.084       .  S
C721        C722   1.409       .  A
C722        N723   1.439       .  S
N723        H727   1.045       .  S
N723        H728   1.046       .  S
N726        H729   1.045       .  S
N726        H730   1.046       .  S
C731        C732   1.407       .  A
C731        C736   1.397       .  A
C731        H738   1.084       .  S
C732        C733   1.419       .  A
C733        C734   1.405       .  A
C733        N740   1.432       .  S
C734        C735   1.403       .  A
C734        H739   1.084       .  S
C735        C736   1.401       .  A
C736        N737   1.431       .  S
N737        H741   1.045       .  S
N737        H742   1.046       .  S
N740        H743   1.046       .  S
N740        H744   1.045       .  S
