geometry optimzed in LAMMPS
_audit_creation_date              2020-11-30 
_audit_creation_method            'lammps2cif' 
_symmetry_space_group_name_H-M    'P1' 
_symmetry_Int_Tables_number       1 
_symmetry_cell_setting            triclinic 
loop_ 
_symmetry_equiv_pos_as_xyz 
  x,y,z 
_cell_length_a                    49.25616829253672 
_cell_length_b                    47.31036108121964 
_cell_length_c                    43.88253600867153 
_cell_angle_alpha                 90.54954884426748 
_cell_angle_beta                  90.01003782762012 
_cell_angle_gamma                 89.4889520603892 
loop_ 
_atom_site_label 
_atom_site_type_symbol 
_atom_site_fract_x 
_atom_site_fract_y 
_atom_site_fract_z 
_atom_site_charge 
Zr1        Zr  0.45892449  0.56030201  0.06277011     2.17510
O2          O  0.46848140  0.53444526  0.01490373    -0.51940
O3          O  0.48899967  0.53497967  0.09906683    -0.75140
O4          O  0.50072495  0.56881625  0.03553465    -0.81930
O5          O  0.39731110  0.51997219  0.09674867    -0.83670
O6          O  0.50569476  0.60152024  0.06989075    -0.79290
O7          O  0.41971133  0.53106538  0.05614685    -0.90930
O8          O  0.48707660  0.55447160  0.14609192    -0.76890
O9          O  0.47892688  0.59558063  0.09456318    -0.86380
O10         O  0.43355329  0.56030312  0.10984938    -0.86070
O11         O  0.45325647  0.60382152  0.03566818    -0.72830
O12         O  0.41142514  0.56961622  0.05173121    -0.84970
Zr13       Zr  0.40223545  0.65050675  0.09625437     2.26420
Zr14       Zr  0.47303913  0.63901814  0.06811794     2.06270
Zr15       Zr  0.38565794  0.57125680  0.09894281     2.10050
Zr16       Zr  0.45414988  0.59490201  0.14062041     1.78760
O17         O  0.34862272  0.55020120  0.07014865    -0.93770
O18         O  0.49504954  0.61734372  0.16006474    -0.41580
O19         O  0.40826808  0.60796281  0.12647638    -0.78210
O20         O  0.44722680  0.63918454  0.11438485    -0.96900
O21         O  0.42771509  0.64821515  0.05115687    -0.90200
O22         O  0.38093574  0.61336683  0.06819586    -0.93040
C23         C  0.49617046  0.53550835  0.12713079     1.00710
C24         C  0.41487342  0.51304726  0.07646154     1.13640
C25         C  0.51251659  0.59119379  0.04439180     1.04420
O26         O  0.51466659  0.66651584  0.06748362    -0.95200
O27         O  0.47129828  0.68070464  0.09814853    -0.90940
O28         O  0.42843759  0.69218256  0.08960619    -0.84090
C29         C  0.45349375  0.69810015  0.08948764     1.11060
O30         O  0.42198149  0.58259079  0.47908012    -0.97170
Zr31       Zr  0.40655462  0.61153754  0.02226243     1.88940
O32         O  0.36750900  0.67113628  0.05793686    -0.73820
O33         O  0.47719003  0.66314143  0.01928589    -0.53080
O34         O  0.42006444  0.64278510  0.48138582    -0.97760
O35         O  0.36924301  0.58436252  0.00076459    -0.54980
O36         O  0.37124081  0.64677297  0.01311330    -0.74340
C37         C  0.36096919  0.66698994  0.02908326     0.98010
O38         O  0.39558484  0.68752247  0.13434235    -0.63160
O39         O  0.36947333  0.55358204  0.14752124    -0.57960
O40         O  0.37822749  0.63230756  0.13730553    -0.94640
O41         O  0.34812137  0.60416345  0.11763755    -0.93070
O42         O  0.43403269  0.56590900  0.18008471    -0.93420
O43         O  0.44576122  0.62049492  0.18815772    -0.92210
C44         C  0.35394485  0.62763797  0.13126934     1.16850
H45         H  0.43582933  0.54270339  0.12055245     0.32790
H46         H  0.45156074  0.65246820  0.13047290     0.43650
H47         H  0.36202761  0.61728802  0.06405111     0.37170
H48         H  0.46279035  0.60260097  0.01666992     0.33650
H49         H  0.50102600  0.60524683  0.17713374     0.25440
H50         H  0.49675771  0.66532797  0.01503081     0.31380
H51         H  0.40542042  0.64153620  0.46598269     0.37290
H52         H  0.44952613  0.55981288  0.19289145     0.31750
H53         H  0.35539703  0.53963910  0.14196762     0.30620
H54         H  0.33448942  0.54645391  0.08559565     0.32300
H55         H  0.36242516  0.59562921  0.48342962     0.31270
H56         H  0.42990453  0.63281002  0.18375940     0.35270
H57         H  0.39026554  0.67806921  0.15339971     0.28000
H58         H  0.46660972  0.54868783  0.99862282     0.32240
H59         H  0.41122838  0.58900713  0.46134289     0.35090
H60         H  0.38474253  0.54204206  0.15542380     0.27700
H61         H  0.41384475  0.69449825  0.13985410     0.40570
H62         H  0.51983739  0.66943731  0.08908731     0.30620
H63         H  0.50886965  0.61406245  0.14400376     0.38240
H64         H  0.35460257  0.58580536  0.01616546     0.30090
H65         H  0.47064206  0.64983714  0.00348154     0.30150
H66         H  0.45283757  0.52153097  0.51147732     0.30420
Zr67       Zr  0.45869064  0.92799107  0.08280788     2.17510
O68         O  0.46781793  0.96796946  0.11631232    -0.51940
O69         O  0.48627155  0.95689492  0.04835398    -0.75140
O70         O  0.49656997  0.91888811  0.11772951    -0.81930
O71         O  0.39372625  0.95994815  0.04608044    -0.83670
O72         O  0.50925187  0.88761910  0.08435329    -0.79290
O73         O  0.41730357  0.95432947  0.08843804    -0.90930
O74         O  0.49166423  0.93169422  0.00452525    -0.76890
O75         O  0.48287258  0.89314990  0.05378950    -0.86380
O76         O  0.43497086  0.92473942  0.03503625    -0.86070
O77         O  0.45533060  0.88482558  0.11204975    -0.72830
O78         O  0.41200652  0.91460862  0.09279050    -0.84970
Zr79       Zr  0.41091700  0.83206890  0.04978474     2.26420
Zr80       Zr  0.47834186  0.84971807  0.08133594     2.06270
Zr81       Zr  0.38843899  0.90917289  0.04453126     2.10050
Zr82       Zr  0.45961356  0.89114939  0.00674542     1.78760
O83         O  0.34859999  0.92890146  0.07005873    -0.93770
O84         O  0.50125812  0.86863338  0.48877666    -0.41580
O85         O  0.41452904  0.87406526  0.01851816    -0.78210
O86         O  0.45493384  0.84785643  0.03420548    -0.96900
O87         O  0.43382099  0.83620639  0.09645810    -0.90200
O88         O  0.38593550  0.86791450  0.07602758    -0.93040
C89         C  0.49713401  0.95319497  0.02186242     1.00710
C90         C  0.40811219  0.97019418  0.06752738     1.13640
C91         C  0.51190145  0.89800797  0.11066319     1.04420
O92         O  0.52208977  0.82601552  0.07979602    -0.95200
O93         O  0.48635663  0.80754293  0.05226311    -0.90940
O94         O  0.44313417  0.79346177  0.04529139    -0.84090
C95         C  0.46901264  0.78957008  0.04331900     1.11060
O96         O  0.42008302  0.90234703  0.16724362    -0.97170
Zr97       Zr  0.40929750  0.87285702  0.12302901     1.88940
O98         O  0.37810549  0.80866515  0.08776414    -0.73820
O99         O  0.48220308  0.82577717  0.13021975    -0.53080
O100        O  0.42391704  0.84287331  0.16492975    -0.97760
O101        O  0.36923448  0.89825485  0.14161047    -0.54980
O102        O  0.37559832  0.83631328  0.13045501    -0.74340
C103        C  0.36844771  0.81440125  0.11517687     0.98010
O104        O  0.40792671  0.79676735  0.50900245    -0.63160
O105        O  0.37405342  0.92308584  0.49371584    -0.57960
O106        O  0.38248432  0.84585908  0.00941525    -0.94640
O107        O  0.35226587  0.87616691  0.02711339    -0.93070
O108        O  0.44007227  0.92009304  0.46643114    -0.93420
O109        O  0.45432179  0.86614207  0.45831662    -0.92210
C110        C  0.35816270  0.85217186  0.01468427     1.16850
H111        H  0.43573512  0.94232441  0.02408175     0.32790
H112        H  0.46212357  0.83519611  0.01885463     0.43650
H113        H  0.36726725  0.86274844  0.07940736     0.37170
H114        H  0.46340637  0.88637128  0.13191587     0.33650
H115        H  0.50793946  0.88111045  0.47247816     0.25440
H116        H  0.50182533  0.82333588  0.13422982     0.31380
H117        H  0.40819798  0.84223028  0.17896225     0.37290
H118        H  0.45593380  0.92770183  0.45545634     0.31750
H119        H  0.35717764  0.93391475  0.99690292     0.30620
H120        H  0.33714685  0.93635025  0.05336764     0.32300
H121        H  0.36209339  0.88649034  0.15828872     0.31270
H122        H  0.44140379  0.85079751  0.46274567     0.35270
H123        H  0.39057832  0.79878109  0.49817140     0.28000
H124        H  0.48772805  0.97047379  0.11563297     0.32240
H125        H  0.40874159  0.89527965  0.18411499     0.35090
H126        H  0.38747944  0.93732984  0.48739425     0.27700
H127        H  0.42150354  0.80269877  0.49373011     0.40570
H128        H  0.53040329  0.83256296  0.06057222     0.30620
H129        H  0.51445002  0.87120020  0.00577997     0.38240
H130        H  0.35569689  0.89631200  0.12506571     0.30090
H131        H  0.47575727  0.83941170  0.14586368     0.30150
H132        H  0.46400609  0.96116465  0.13713440     0.30420
Zr133      Zr  0.13534261  0.93602157  0.30219706     2.17510
O134        O  0.12731191  0.97386975  0.26617839    -0.51940
O135        O  0.09711374  0.95675848  0.33333839    -0.75140
O136        O  0.09974009  0.92251898  0.26380175    -0.81930
O137        O  0.19000011  0.96781621  0.35559253    -0.83670
O138        O  0.11381555  0.88172579  0.24249415    -0.79290
O139        O  0.17276494  0.96825522  0.30879870    -0.90930
O140        O  0.09121048  0.93202690  0.37650596    -0.76890
O141        O  0.11095078  0.89695429  0.31999852    -0.86380
O142        O  0.15156556  0.92994199  0.35360338    -0.86070
O143        O  0.15092506  0.89932018  0.26906941    -0.72830
O144        O  0.18418298  0.92567453  0.30253865    -0.84970
Zr145      Zr  0.18357566  0.83899212  0.33296192     2.26420
Zr146      Zr  0.12605031  0.85881320  0.28699313     2.06270
Zr147      Zr  0.19992183  0.91633526  0.35372348     2.10050
Zr148      Zr  0.12558696  0.89317549  0.37191068     1.78760
O149        O  0.24230864  0.93791365  0.33805289    -0.93770
O150        O  0.08241145  0.87001353  0.38111952    -0.41580
O151        O  0.17278589  0.87748054  0.36914457    -0.78210
O152        O  0.13777388  0.85512029  0.33885319    -0.96900
O153        O  0.17255662  0.84756660  0.28233541    -0.90200
O154        O  0.21134823  0.87799634  0.31917947    -0.93040
C155        C  0.08490464  0.95294217  0.35913340     1.00710
C156        C  0.17745292  0.98075627  0.33404385     1.13640
C157        C  0.09725669  0.90187990  0.24435706     1.04420
O158        O  0.07867721  0.84765469  0.29114045    -0.95200
O159        O  0.11211827  0.81448910  0.30688448    -0.90940
O160        O  0.14807989  0.80353525  0.33662601    -0.84090
C161        C  0.12343974  0.79982880  0.32750814     1.11060
O162        O  0.20136615  0.92552630  0.23049299    -0.97170
Zr163      Zr  0.19808659  0.88846006  0.26852698     1.88940
O164        O  0.21729023  0.81820330  0.29510168    -0.73820
O165        O  0.13027504  0.82182078  0.24830022    -0.53080
O166        O  0.18505366  0.86940232  0.21885254    -0.97760
O167        O  0.24286670  0.90988498  0.26588373    -0.54980
O168        O  0.22864226  0.84924336  0.25829082    -0.74340
C169        C  0.23057401  0.82492849  0.27054260     0.98010
O170        O  0.19674229  0.79120720  0.34670231    -0.63160
O171        O  0.20716110  0.92929478  0.40691986    -0.57960
O172        O  0.20302902  0.84415809  0.38143309    -0.94640
O173        O  0.23187818  0.87974900  0.37653612    -0.93070
O174        O  0.13971429  0.91878206  0.41760675    -0.93420
O175        O  0.12549394  0.86154454  0.41540222    -0.92210
C176        C  0.22658848  0.85386520  0.38408176     1.16850
H177        H  0.14741513  0.94624519  0.36622078     0.32790
H178        H  0.12612597  0.84340601  0.35069500     0.43650
H179        H  0.23038836  0.87298590  0.31989154     0.37170
H180        H  0.14962708  0.90702189  0.24878740     0.33650
H181        H  0.07474451  0.87980403  0.39926335     0.25440
H182        H  0.11156152  0.81929203  0.24053964     0.31380
H183        H  0.20234788  0.86496305  0.20827791     0.37290
H184        H  0.12258025  0.92391868  0.42816524     0.31750
H185        H  0.22343973  0.94142012  0.40666823     0.30620
H186        H  0.25436044  0.93610943  0.35599888     0.32300
H187        H  0.25188739  0.90056394  0.24825139     0.31270
H188        H  0.13912187  0.84674799  0.41024353     0.35270
H189        H  0.21674615  0.79019590  0.34508981     0.28000
H190        H  0.10781499  0.97851259  0.26855510     0.32240
H191        H  0.21281611  0.91752691  0.21393299     0.35090
H192        H  0.19201299  0.94240596  0.41198348     0.27700
H193        H  0.19272403  0.79051230  0.36867130     0.40570
H194        H  0.07458395  0.85283462  0.31257673     0.30620
H195        H  0.07060462  0.87611926  0.36410907     0.38240
H196        H  0.25286786  0.90273170  0.28382353     0.30090
H197        H  0.14011477  0.83069843  0.23126793     0.30150
H198        H  0.13699458  0.99039576  0.27448832     0.30420
Zr199      Zr  0.13062864  0.55768695  0.33171332     2.17510
O200        O  0.11531118  0.51557435  0.35766439    -0.51940
O201        O  0.10352983  0.52977436  0.29701743    -0.75140
O202        O  0.09045456  0.56916375  0.36418599    -0.81930
O203        O  0.21144959  0.52750990  0.29937180    -0.83670
O204        O  0.09631645  0.61333080  0.38257700    -0.79290
O205        O  0.17314947  0.54301980  0.31213382    -0.90930
O206        O  0.08747247  0.56291393  0.26518402    -0.76890
O207        O  0.10549458  0.59446295  0.30970739    -0.86380
O208        O  0.15196245  0.56280072  0.28214973    -0.86070
O209        O  0.14079034  0.59554674  0.36604839    -0.72830
O210        O  0.17843475  0.56959387  0.33883812    -0.84970
Zr211      Zr  0.18013313  0.65400604  0.30527831     2.26420
Zr212      Zr  0.11652316  0.63371239  0.34155255     2.06270
Zr213      Zr  0.20026669  0.57754584  0.28890495     2.10050
Zr214      Zr  0.12540035  0.59911084  0.26119837     1.78760
O215        O  0.24648185  0.56153082  0.29916143    -0.93770
O216        O  0.08622090  0.62684145  0.24490503    -0.41580
O217        O  0.17218200  0.61480210  0.26978521    -0.78210
O218        O  0.13435827  0.64088312  0.29216636    -0.96900
O219        O  0.16198405  0.64599442  0.35336754    -0.90200
O220        O  0.20707491  0.61620039  0.32445438    -0.93040
C221        C  0.08539919  0.53855501  0.27860192     1.00710
C222        C  0.18936692  0.52246809  0.31247980     1.13640
C223        C  0.08398822  0.59027123  0.38154253     1.04420
O224        O  0.06861575  0.63887682  0.32855473    -0.95200
O225        O  0.10751500  0.67951472  0.32504807    -0.90940
O226        O  0.15005095  0.69365992  0.31423007    -0.84090
C227        C  0.12523034  0.69820285  0.32116479     1.11060
O228        O  0.18854887  0.57710338  0.41754162    -0.97170
Zr229      Zr  0.18761209  0.60746414  0.37308491     1.88940
O230        O  0.21396930  0.67466415  0.34315756    -0.73820
O231        O  0.10935875  0.66832411  0.38238522    -0.53080
O232        O  0.16983695  0.63110120  0.41859577    -0.97760
O233        O  0.22980087  0.58102642  0.38024711    -0.54980
O234        O  0.21919697  0.64552285  0.38348684    -0.74340
C235        C  0.22455115  0.66846835  0.36961196     0.98010
O236        O  0.19416496  0.69673543  0.27976052    -0.63160
O237        O  0.20090955  0.56150360  0.23603607    -0.57960
O238        O  0.20249564  0.64745987  0.25869115    -0.94640
O239        O  0.23238126  0.61339794  0.26879905    -0.93070
O240        O  0.13715505  0.56832853  0.21820642    -0.93420
O241        O  0.12908185  0.62258401  0.21226438    -0.92210
C242        C  0.22655324  0.63837823  0.25911963     1.16850
H243        H  0.14964473  0.54660607  0.26860523     0.32790
H244        H  0.12567839  0.65611485  0.28128697     0.43650
H245        H  0.22602037  0.62106725  0.32621004     0.37170
H246        H  0.13582076  0.59018020  0.38643888     0.33650
H247        H  0.07417102  0.61302167  0.23472321     0.25440
H248        H  0.08970000  0.66792879  0.38701002     0.31380
H249        H  0.18595807  0.63802333  0.42978205     0.37290
H250        H  0.12039657  0.55761609  0.21384824     0.31750
H251        H  0.22036610  0.56140862  0.23036733     0.30620
H252        H  0.25513355  0.55984943  0.27884621     0.32300
H253        H  0.24439186  0.59461689  0.37572879     0.31270
H254        H  0.14369443  0.63657683  0.21527335     0.35270
H255        H  0.17795526  0.70318245  0.26832288     0.28000
H256        H  0.10059947  0.50707347  0.34538916     0.32240
H257        H  0.20171273  0.58583932  0.43177112     0.35090
H258        H  0.19605554  0.54126379  0.23694875     0.27700
H259        H  0.19687993  0.71112540  0.29596496     0.40570
H260        H  0.06326444  0.62151284  0.31744699     0.30620
H261        H  0.07663169  0.63199074  0.26400024     0.38240
H262        H  0.23041721  0.56734942  0.36303958     0.30090
H263        H  0.11831220  0.66024184  0.40057431     0.30150
H264        H  0.10607688  0.52169809  0.37663997     0.30420
Zr265      Zr  0.25838551  0.75808493  0.40377728     2.17510
O266        O  0.21219105  0.75478118  0.42196765    -0.51940
O267        O  0.27078060  0.75282868  0.35067862    -0.75140
O268        O  0.24197797  0.80653006  0.39051638    -0.81930
O269        O  0.25903820  0.68027261  0.40817019    -0.83670
O270        O  0.26529268  0.84205166  0.41388894    -0.79290
O271        O  0.24002643  0.71564551  0.37961891    -0.90930
O272        O  0.31690593  0.74800760  0.35141134    -0.76890
O273        O  0.29656361  0.78811805  0.40286622    -0.86380
O274        O  0.29671503  0.72673976  0.40370442    -0.86070
O275        O  0.25470183  0.78652324  0.44866114    -0.72830
O276        O  0.25583392  0.72823627  0.44758330    -0.84970
Zr277      Zr  0.32989555  0.75680804  0.49133702     2.26420
Zr278      Zr  0.29370064  0.81583018  0.44860186     2.06270
Zr279      Zr  0.29444858  0.69707875  0.44711126     2.10050
Zr280      Zr  0.33467760  0.75695612  0.40207750     1.78760
O281        O  0.26851722  0.66095731  0.47308400    -0.93770
O282        O  0.34978669  0.79669362  0.37161933    -0.41580
O283        O  0.33297323  0.72768459  0.44641719    -0.78210
O284        O  0.33321165  0.78592458  0.44727353    -0.96900
O285        O  0.29140382  0.78728899  0.49311892    -0.90200
O286        O  0.29140329  0.72645679  0.49084999    -0.93040
C287        C  0.29380688  0.74759447  0.33787671     1.00710
C288        C  0.24276740  0.68933929  0.38649344     1.13640
C289        C  0.24651116  0.83314666  0.39633181     1.04420
O290        O  0.32361581  0.84906350  0.42354167    -0.95200
O291        O  0.31982157  0.84052732  0.48607225    -0.90940
O292        O  0.34382368  0.80483758  0.00820158    -0.84090
C293        C  0.33846182  0.83146594  0.50362135     1.11060
O294        O  0.20435439  0.76474126  0.48697265    -0.97170
Zr295      Zr  0.25316181  0.75713728  0.49258049     1.88940
O296        O  0.31710727  0.75193441  0.04329347    -0.73820
O297        O  0.26504420  0.84885148  0.47739390    -0.53080
O298        O  0.23906171  0.79773340  0.02356501    -0.97760
O299        O  0.22550545  0.71811346  0.01050343    -0.54980
O300        O  0.27101398  0.74772588  0.04248381    -0.74340
C301        C  0.29420605  0.74676463  0.05566284     0.98010
O302        O  0.37808457  0.74932640  0.48236649    -0.63160
O303        O  0.32093349  0.66176507  0.41909030    -0.57960
O304        O  0.34575090  0.71431958  0.01766383    -0.94640
O305        O  0.32774306  0.67886188  0.48829582    -0.93070
O306        O  0.36206883  0.71728616  0.38358711    -0.93420
O307        O  0.38374125  0.76237766  0.40595775    -0.92210
C308        C  0.34294681  0.68779301  0.51115045     1.16850
H309        H  0.29651419  0.71430390  0.38615695     0.32790
H310        H  0.34932624  0.79737945  0.44828470     0.43650
H311        H  0.29117451  0.71376716  0.00795662     0.37170
H312        H  0.23840301  0.79801005  0.44822747     0.33650
H313        H  0.36075234  0.78798147  0.35504948     0.25440
H314        H  0.26911818  0.86769618  0.46898844     0.31380
H315        H  0.23275230  0.78963692  0.04301873     0.37290
H316        H  0.34874064  0.70267781  0.37769791     0.31750
H317        H  0.31430696  0.64342456  0.42665521     0.30620
H318        H  0.28090249  0.64438658  0.47391986     0.32300
H319        H  0.22205832  0.72240542  0.03229992     0.31270
H320        H  0.38656797  0.78209035  0.41296287     0.35270
H321        H  0.38011046  0.72943125  0.47547425     0.28000
H322        H  0.20627012  0.73555624  0.41628673     0.32240
H323        H  0.19689494  0.76631061  0.00781857     0.35090
H324        H  0.31406543  0.66277945  0.39791993     0.27700
H325        H  0.38233262  0.76050082  0.46411906     0.40570
H326        H  0.32229484  0.84424464  0.40159554     0.30620
H327        H  0.33325849  0.80379565  0.36126180     0.38240
H328        H  0.23806023  0.70165924  0.01070040     0.30090
H329        H  0.24619879  0.84498133  0.47083553     0.30150
H330        H  0.20149784  0.76816164  0.40974207     0.30420
Zr331      Zr  0.33124085  0.72722555  0.15107512     2.17510
O332        O  0.37990091  0.73506668  0.15644335    -0.51940
O333        O  0.31704077  0.73216887  0.09921135    -0.75140
O334        O  0.34273982  0.67681965  0.13649182    -0.81930
O335        O  0.33422316  0.80440669  0.15484552    -0.83670
O336        O  0.31474815  0.64400086  0.15686746    -0.79290
O337        O  0.34964172  0.76817258  0.12444134    -0.90930
O338        O  0.27126233  0.73979038  0.10058418    -0.76890
O339        O  0.29118297  0.69972049  0.15025130    -0.86380
O340        O  0.29410545  0.76017897  0.15155224    -0.86070
O341        O  0.33382622  0.69963216  0.19638790    -0.72830
O342        O  0.33554624  0.75635173  0.19609273    -0.84970
Zr343      Zr  0.25917007  0.73248573  0.23943639     2.26420
Zr344      Zr  0.29317049  0.67232173  0.19561374     2.06270
Zr345      Zr  0.29878550  0.78970470  0.19491000     2.10050
Zr346      Zr  0.25419175  0.73247505  0.15083697     1.78760
O347        O  0.32701176  0.82287307  0.22309879    -0.93770
O348        O  0.23534320  0.69342585  0.12128679    -0.41580
O349        O  0.25809702  0.76184458  0.19506172    -0.78210
O350        O  0.25470623  0.70359917  0.19493503    -0.96900
O351        O  0.29619812  0.70012785  0.24141605    -0.90200
O352        O  0.29894069  0.76118592  0.23942743    -0.93040
C353        C  0.29424976  0.73886299  0.08709626     1.00710
C354        C  0.34906523  0.79454075  0.13202085     1.13640
C355        C  0.33498920  0.65077638  0.14061969     1.04420
O356        O  0.26113494  0.63896062  0.17361011    -0.95200
O357        O  0.26612527  0.64821820  0.23183799    -0.90940
O358        O  0.24194876  0.68495965  0.25231412    -0.84090
C359        C  0.24672026  0.65821987  0.24778158     1.11060
O360        O  0.38424626  0.71907124  0.23837085    -0.97170
Zr361      Zr  0.33560721  0.72866479  0.24168941     1.88940
O362        O  0.27129458  0.73623639  0.29231826    -0.73820
O363        O  0.32376721  0.63928941  0.22111130    -0.53080
O364        O  0.34912329  0.68739199  0.27094932    -0.97760
O365        O  0.36292677  0.76737639  0.26166521    -0.54980
O366        O  0.31742796  0.73855964  0.29236286    -0.74340
C367        C  0.29413045  0.74025153  0.30550994     0.98010
O368        O  0.20999064  0.73798326  0.23933850    -0.63160
O369        O  0.27594242  0.82793842  0.16806846    -0.57960
O370        O  0.24355343  0.77710923  0.26113717    -0.94640
O371        O  0.26458262  0.81066137  0.23253774    -0.93070
O372        O  0.22887962  0.77255100  0.13064264    -0.93420
O373        O  0.20530734  0.73205705  0.15954711    -0.92210
C374        C  0.24773573  0.80296840  0.25398576     1.16850
H375        H  0.29457364  0.77263973  0.13429590     0.32790
H376        H  0.23815277  0.69283493  0.19545184     0.43650
H377        H  0.29922535  0.77388359  0.25676467     0.37170
H378        H  0.34967054  0.68747655  0.19564982     0.33650
H379        H  0.22395644  0.70263122  0.10557947     0.25440
H380        H  0.31619940  0.62038829  0.21658099     0.31380
H381        H  0.35655934  0.69519872  0.29020226     0.37290
H382        H  0.24074930  0.78900194  0.13435780     0.31750
H383        H  0.28568590  0.84519221  0.17456077     0.30620
H384        H  0.31508399  0.83950540  0.22681682     0.32300
H385        H  0.36869991  0.76113245  0.28216368     0.31270
H386        H  0.20100788  0.71240429  0.16524816     0.35270
H387        H  0.20634769  0.75537318  0.22758319     0.28000
H388        H  0.38480696  0.72401500  0.17467437     0.32240
H389        H  0.39188139  0.73497071  0.22674884     0.35090
H390        H  0.28109331  0.82518862  0.14642932     0.27700
H391        H  0.20362177  0.72263077  0.22569893     0.40570
H392        H  0.25557854  0.64749876  0.15405140     0.30620
H393        H  0.25091000  0.68534229  0.10978007     0.38240
H394        H  0.34980160  0.78293450  0.26567781     0.30090
H395        H  0.34103704  0.63968417  0.20959964     0.30150
H396        H  0.38220406  0.75481137  0.16358371     0.30420
Zr397      Zr  0.60232265  0.90661223  0.19034651     2.17510
O398        O  0.56387846  0.92565905  0.16244107    -0.51940
O399        O  0.57791967  0.94199269  0.22072637    -0.75140
O400        O  0.57462399  0.87081063  0.21477770    -0.81930
O401        O  0.64358948  0.95962807  0.15291509    -0.83670
O402        O  0.58494210  0.82614940  0.20584952    -0.79290
O403        O  0.61541748  0.92486683  0.13937433    -0.90930
O404        O  0.59773167  0.94187547  0.26738808    -0.76890
O405        O  0.61018245  0.88090470  0.23620362    -0.86380
O406        O  0.63259510  0.93654193  0.21780130    -0.86070
O407        O  0.62024082  0.86001404  0.17644044    -0.72830
O408        O  0.64427292  0.90496887  0.16550926    -0.84970
Zr409      Zr  0.69988848  0.86716847  0.21440393     2.26420
Zr410      Zr  0.63077905  0.83534675  0.22392062     2.06270
Zr411      Zr  0.67350008  0.93722526  0.18882335     2.10050
Zr412      Zr  0.63958772  0.91111433  0.26348837     1.78760
O413        O  0.70746077  0.95619420  0.15459643    -0.93770
O414        O  0.61307279  0.88921286  0.30362542    -0.41580
O415        O  0.68085800  0.91120644  0.23383294    -0.78210
O416        O  0.66162226  0.86625323  0.24950998    -0.96900
O417        O  0.66847663  0.83751599  0.18979374    -0.90200
O418        O  0.69160658  0.89275105  0.16939823    -0.93040
C419        C  0.57889552  0.95014293  0.24869187     1.00710
C420        C  0.63155521  0.94523577  0.13243740     1.13640
C421        C  0.56851532  0.84697827  0.20315722     1.04420
O422        O  0.60767123  0.82348820  0.27109261    -0.95200
O423        O  0.66600532  0.80727208  0.25215634    -0.90940
O424        O  0.70608701  0.82057630  0.23174499    -0.84090
C425        C  0.69217418  0.80531701  0.24940793     1.11060
O426        O  0.64141467  0.88261253  0.09758062    -0.97170
Zr427      Zr  0.65972867  0.86210838  0.14413545     1.88940
O428        O  0.72222317  0.83516306  0.17449111    -0.73820
O429        O  0.62914513  0.78674145  0.20527057    -0.53080
O430        O  0.63065530  0.82716792  0.11960853    -0.97760
O431        O  0.69326372  0.87301485  0.10494927    -0.54980
O432        O  0.69017559  0.82200709  0.14038709    -0.74340
C433        C  0.71385461  0.81934035  0.15177619     0.98010
O434        O  0.73327581  0.86474088  0.25536160    -0.63160
O435        O  0.67017708  0.98628035  0.20634005    -0.57960
O436        O  0.73494683  0.90235157  0.21028443    -0.94640
O437        O  0.71315802  0.94402972  0.21850448    -0.93070
O438        O  0.65834521  0.95512429  0.28311789    -0.93420
O439        O  0.66471418  0.90682512  0.31105662    -0.92210
C440        C  0.73446915  0.92893957  0.21644434     1.16850
H441        H  0.62607950  0.95563239  0.22094224     0.32790
H442        H  0.66760472  0.85780787  0.26832840     0.43650
H443        H  0.70810510  0.89547685  0.15797161     0.37170
H444        H  0.60730125  0.85001755  0.16432540     0.33650
H445        H  0.60971183  0.90458681  0.31866589     0.25440
H446        H  0.61399927  0.77805528  0.21656287     0.31380
H447        H  0.64280369  0.81666367  0.10544336     0.37290
H448        H  0.64360344  0.96364873  0.29559515     0.31750
H449        H  0.65227437  0.99336631  0.19938078     0.30620
H450        H  0.70438977  0.97689899  0.15532369     0.32300
H451        H  0.69102794  0.85811613  0.08916459     0.31270
H452        H  0.68335262  0.90141256  0.30469389     0.35270
H453        H  0.73185425  0.88356179  0.26523535     0.28000
H454        H  0.54771312  0.91869523  0.17313367     0.32240
H455        H  0.64189330  0.86740736  0.08192942     0.35090
H456        H  0.66851651  0.98517222  0.22877751     0.27700
H457        H  0.72562493  0.85206193  0.27091119     0.40570
H458        H  0.58996797  0.83350576  0.27001261     0.30620
H459        H  0.59504408  0.88574221  0.29440956     0.38240
H460        H  0.71127235  0.86885696  0.11392906     0.30090
H461        H  0.62253731  0.78818914  0.18402358     0.30150
H462        H  0.56412107  0.91628871  0.14226573     0.30420
Zr463      Zr  0.97231154  0.90248026  0.22484302     2.17510
O464        O  0.00953214  0.92723362  0.25024322    -0.51940
O465        O  0.99864208  0.93573732  0.19282394    -0.75140
O466        O  0.98210853  0.85329277  0.22209223    -0.81930
O467        O  0.92284179  0.93210757  0.28513916    -0.83670
O468        O  0.99763086  0.83331915  0.18197269    -0.79290
O469        O  0.96609929  0.91651434  0.27938134    -0.90930
O470        O  0.97277897  0.94867139  0.15275667    -0.76890
O471        O  0.96792063  0.88427094  0.17330003    -0.86380
O472        O  0.93997946  0.93415659  0.20555445    -0.86070
O473        O  0.93937762  0.86742876  0.21448217    -0.72830
O474        O  0.93471879  0.89378628  0.25603005    -0.84970
Zr475      Zr  0.87799131  0.86121088  0.19240881     2.26420
Zr476      Zr  0.94857453  0.83608363  0.17288984     2.06270
Zr477      Zr  0.90125126  0.92479211  0.23673430     2.10050
Zr478      Zr  0.93375158  0.91603731  0.15468298     1.78760
O479        O  0.86672747  0.93497776  0.27514016    -0.93770
O480        O  0.95940324  0.90159501  0.10949633    -0.41580
O481        O  0.89373266  0.90896556  0.18586538    -0.78210
O482        O  0.91489564  0.86864064  0.15524398    -0.96900
O483        O  0.91198706  0.82781645  0.20861177    -0.90200
O484        O  0.88570239  0.87711787  0.24274508    -0.93040
C485        C  0.99448449  0.95089489  0.16895676     1.00710
C486        C  0.94669486  0.92730083  0.29573943     1.13640
C487        C  0.00240288  0.84593670  0.20695516     1.04420
O488        O  0.95767896  0.83234268  0.11847460    -0.95200
O489        O  0.91350566  0.80316239  0.15307085    -0.90940
O490        O  0.87791700  0.83265886  0.14856641    -0.84090
C491        C  0.88855310  0.80849619  0.14600305     1.11060
O492        O  0.95140897  0.84632350  0.30260753    -0.97170
Zr493      Zr  0.92137150  0.84588501  0.25845504     1.88940
O494        O  0.85770083  0.82399943  0.22745103    -0.73820
O495        O  0.96354009  0.79025093  0.19241704    -0.53080
O496        O  0.95706162  0.81010377  0.25979605    -0.97760
O497        O  0.89337013  0.85475675  0.30373198    -0.54980
O498        O  0.88878192  0.80917825  0.26206428    -0.74340
C499        C  0.86522323  0.80810275  0.25032736     0.98010
O500        O  0.83633683  0.86493759  0.16254122    -0.63160
O501        O  0.90483771  0.97591803  0.23314767    -0.57960
O502        O  0.84143305  0.89423735  0.20315560    -0.94640
O503        O  0.86084870  0.93686997  0.21051882    -0.93070
O504        O  0.91289176  0.96189947  0.14473423    -0.93420
O505        O  0.90620259  0.91969498  0.10873445    -0.92210
C506        C  0.84050280  0.92114146  0.20651951     1.16850
H507        H  0.94590086  0.95355402  0.20642774     0.32790
H508        H  0.91024864  0.86442297  0.13431185     0.43650
H509        H  0.86938842  0.87626078  0.25487161     0.37170
H510        H  0.92445402  0.87850468  0.20679557     0.33650
H511        H  0.96088453  0.91897011  0.09722521     0.25440
H512        H  0.97461435  0.78172500  0.17583009     0.31380
H513        H  0.94735453  0.79214948  0.26306025     0.37290
H514        H  0.92570839  0.97151253  0.13097061     0.31750
H515        H  0.89622073  0.98075420  0.21346423     0.30620
H516        H  0.85963893  0.95408681  0.27044686     0.32300
H517        H  0.89833378  0.83964510  0.31819917     0.31270
H518        H  0.88820919  0.91239695  0.11471182     0.35270
H519        H  0.84177745  0.87631699  0.14477701     0.28000
H520        H  0.02576459  0.92734304  0.23707111     0.32240
H521        H  0.94621046  0.82978919  0.31490841     0.35090
H522        H  0.89235445  0.98376882  0.24879683     0.27700
H523        H  0.83262341  0.84627429  0.15349849     0.40570
H524        H  0.97686069  0.83810225  0.11639164     0.30620
H525        H  0.97813692  0.89798321  0.11675924     0.38240
H526        H  0.87439096  0.85046242  0.29808547     0.30090
H527        H  0.97650348  0.79363079  0.20922737     0.30150
H528        H  0.01444094  0.91787272  0.26951638     0.30420
Zr529      Zr  0.60292324  0.58226286  0.46343268     2.17510
O530        O  0.56399068  0.56577698  0.99103571    -0.51940
O531        O  0.57785544  0.54884265  0.43230814    -0.75140
O532        O  0.57533972  0.62040447  0.44211654    -0.81930
O533        O  0.63750612  0.52400283  0.48009318    -0.83670
O534        O  0.58588065  0.66446614  0.45279696    -0.79290
O535        O  0.61190384  0.55163831  0.00818971    -0.90930
O536        O  0.59874861  0.54677180  0.38631924    -0.76890
O537        O  0.60982621  0.60916347  0.41819961    -0.86380
O538        O  0.63357758  0.55412817  0.43409762    -0.86070
O539        O  0.62102019  0.62797685  0.47875539    -0.72830
O540        O  0.64375058  0.58034078  0.49275192    -0.84970
Zr541      Zr  0.70020697  0.62206121  0.43946077     2.26420
Zr542      Zr  0.63040827  0.65405102  0.43188389     2.06270
Zr543      Zr  0.67437910  0.55228678  0.46305938     2.10050
Zr544      Zr  0.63924393  0.57992644  0.38923018     1.78760
O545        O  0.70218619  0.54044757  0.00776269    -0.93770
O546        O  0.61021736  0.60276366  0.35162922    -0.41580
O547        O  0.68085051  0.57927022  0.41879647    -0.78210
O548        O  0.66149739  0.62399419  0.40472508    -0.96900
O549        O  0.66825794  0.65041320  0.46568150    -0.90200
O550        O  0.69224107  0.59586267  0.48336055    -0.93040
C551        C  0.57966095  0.53910785  0.40506484     1.00710
C552        C  0.62788126  0.53007633  0.00640462     1.13640
C553        C  0.56965653  0.64383549  0.45524821     1.04420
O554        O  0.60572190  0.66481381  0.38526362    -0.95200
O555        O  0.66419829  0.68293031  0.40371553    -0.90940
O556        O  0.70449021  0.66900709  0.42355636    -0.84090
C557        C  0.69028752  0.68463870  0.40634144     1.11060
O558        O  0.63525564  0.60649003  0.05353696    -0.97170
Zr559      Zr  0.66096851  0.62440456  0.01046247     1.88940
O560        O  0.72311589  0.65332613  0.47963069    -0.73820
O561        O  0.62853877  0.70314024  0.44910721    -0.53080
O562        O  0.63600212  0.66339031  0.03443590    -0.97760
O563        O  0.69203628  0.60876209  0.05043827    -0.54980
O564        O  0.69392395  0.66179847  0.01769944    -0.74340
C565        C  0.71586544  0.66664394  0.50471880     0.98010
O566        O  0.73364070  0.62404387  0.39850679    -0.63160
O567        O  0.68028965  0.50631371  0.43770820    -0.57960
O568        O  0.73606448  0.58659257  0.44257353    -0.94640
O569        O  0.71634701  0.54368840  0.43839865    -0.93070
O570        O  0.65917101  0.53717755  0.36701719    -0.93420
O571        O  0.66291661  0.58646642  0.34111526    -0.92210
C572        C  0.73673046  0.55972082  0.43756710     1.16850
H573        H  0.62765870  0.53519954  0.42941004     0.32790
H574        H  0.66716234  0.63300562  0.38615684     0.43650
H575        H  0.70894163  0.59339494  0.49453352     0.37170
H576        H  0.60840036  0.63759945  0.49186726     0.33650
H577        H  0.60788141  0.58834404  0.33535450     0.25440
H578        H  0.61274224  0.71151998  0.43841507     0.31380
H579        H  0.64740306  0.66930180  0.05191508     0.37290
H580        H  0.64447680  0.52883176  0.35454018     0.31750
H581        H  0.66214805  0.49753594  0.43743339     0.30620
H582        H  0.72094811  0.54528035  0.00194214     0.32300
H583        H  0.68922956  0.62240926  0.06741728     0.31270
H584        H  0.68163529  0.59160964  0.34709564     0.35270
H585        H  0.73235580  0.60550227  0.38798084     0.28000
H586        H  0.54865074  0.57466021  0.98038007     0.32240
H587        H  0.63993908  0.61868025  0.07119178     0.35090
H588        H  0.68359385  0.51050335  0.41596522     0.27700
H589        H  0.72610393  0.63741618  0.38343529     0.40570
H590        H  0.58706451  0.65797040  0.38882690     0.30620
H591        H  0.59212439  0.60417658  0.36138184     0.38240
H592        H  0.71051628  0.61293750  0.04296497     0.30090
H593        H  0.62297170  0.70232332  0.47076105     0.30150
H594        H  0.56503026  0.57492681  0.01121432     0.30420
Zr595      Zr  0.97078961  0.57783041  0.44512715     2.17510
O596        O  0.00524110  0.55866330  0.41136572    -0.51940
O597        O  0.99906537  0.54672600  0.47620231    -0.75140
O598        O  0.99239943  0.61703792  0.47066733    -0.81930
O599        O  0.92642141  0.51979109  0.43343086    -0.83670
O600        O  0.99903453  0.66088241  0.46306200    -0.79290
O601        O  0.95028107  0.54753297  0.40423859    -0.90930
O602        O  0.98213178  0.55220293  0.02457724    -0.76890
O603        O  0.96810745  0.60849306  0.48958539    -0.86380
O604        O  0.94193097  0.55350373  0.47913888    -0.86070
O605        O  0.95934031  0.62715388  0.43098234    -0.72830
O606        O  0.92834940  0.57911579  0.41802755    -0.84970
Zr607      Zr  0.88075802  0.63005392  0.47838746     2.26420
Zr608      Zr  0.95138799  0.65652931  0.47778733     2.06270
Zr609      Zr  0.89942056  0.55643008  0.45453447     2.10050
Zr610      Zr  0.93962459  0.58346023  0.02286805     1.78760
O611        O  0.86972001  0.55355634  0.41008157    -0.93770
O612        O  0.97011490  0.60609639  0.05923134    -0.41580
O613        O  0.89435397  0.58456056  0.99869598    -0.78210
O614        O  0.92116386  0.63016006  0.00966754    -0.96900
O615        O  0.91067159  0.65643072  0.44722021    -0.90200
O616        O  0.91163762  0.60409031  0.45133094    -0.93040
C617        C  0.99978561  0.54161389  0.00528495     1.00710
C618        C  0.93326041  0.52704702  0.40709682     1.13640
C619        C  0.00740855  0.63577375  0.45928858     1.04420
O620        O  0.97080488  0.66937741  0.02651048    -0.95200
O621        O  0.91493274  0.69199984  0.99407766    -0.90940
O622        O  0.88310919  0.66413727  0.01394100    -0.84090
C623        C  0.89192610  0.68810743  0.00782933     1.11060
O624        O  0.94579826  0.61318314  0.35978657    -0.97170
Zr625      Zr  0.91815500  0.62652464  0.40374344     1.88940
O626        O  0.85874328  0.66287469  0.43857633    -0.73820
O627        O  0.96086675  0.70368908  0.45873588    -0.53080
O628        O  0.94352067  0.66488458  0.38093074    -0.97760
O629        O  0.88413634  0.60345435  0.37231285    -0.54980
O630        O  0.88192411  0.65986517  0.39401930    -0.74340
C631        C  0.86268386  0.67026124  0.41012030     0.98010
O632        O  0.84514992  0.62810971  0.01603660    -0.63160
O633        O  0.89464481  0.51792824  0.49100887    -0.57960
O634        O  0.84434020  0.60448958  0.95205902    -0.94640
O635        O  0.85418127  0.56248290  0.47098660    -0.93070
O636        O  0.92083032  0.54207208  0.04743316    -0.93420
O637        O  0.91979794  0.59181735  0.07302075    -0.92210
C638        C  0.83820171  0.57942842  0.45778192     1.16850
H639        H  0.94747474  0.53433741  0.48346003     0.32790
H640        H  0.91971255  0.63970658  0.02915499     0.43650
H641        H  0.92796012  0.60572340  0.46297696     0.37170
H642        H  0.97250982  0.63489884  0.41741895     0.33650
H643        H  0.97546710  0.59090180  0.07345033     0.25440
H644        H  0.97774996  0.70984372  0.46898837     0.31380
H645        H  0.93104282  0.67304840  0.36559528     0.37290
H646        H  0.93330355  0.52637208  0.04175360     0.31750
H647        H  0.87528944  0.51247680  0.49074503     0.30620
H648        H  0.85504365  0.54021168  0.41495309     0.32300
H649        H  0.89314292  0.58602326  0.36468266     0.31270
H650        H  0.90208209  0.60104624  0.06883127     0.35270
H651        H  0.83269227  0.61287409  0.00965716     0.28000
H652        H  0.02241795  0.55945113  0.42277125     0.32240
H653        H  0.93397816  0.61649143  0.34189900     0.35090
H654        H  0.90478753  0.50135928  0.48286661     0.27700
H655        H  0.85438001  0.62049471  0.03429628     0.40570
H656        H  0.98958305  0.66176907  0.02571782     0.30620
H657        H  0.98684751  0.60990005  0.04752254     0.38240
H658        H  0.88232772  0.61548677  0.35407504     0.30090
H659        H  0.96583924  0.70095099  0.43706143     0.30150
H660        H  0.00631220  0.57193333  0.39422987     0.30420
Zr661      Zr  0.77849901  0.71332107  0.37870851     2.17510
O662        O  0.76949067  0.67002117  0.40633205    -0.51940
O663        O  0.78322843  0.73741765  0.42646477    -0.75140
O664        O  0.81864965  0.69064750  0.40068556    -0.81930
O665        O  0.69754213  0.71841124  0.36658290    -0.83670
O666        O  0.85305321  0.70587138  0.37062043    -0.79290
O667        O  0.73292570  0.70060534  0.39332889    -0.90930
O668        O  0.78702882  0.78487478  0.42294481    -0.76890
O669        O  0.80898867  0.75173133  0.37431578    -0.86380
O670        O  0.75007042  0.75380161  0.37403310    -0.86070
O671        O  0.80586585  0.70110914  0.33505977    -0.72830
O672        O  0.75110008  0.70392016  0.33470321    -0.84970
Zr673      Zr  0.77952961  0.77329528  0.28082244     2.26420
Zr674      Zr  0.83599506  0.74067501  0.33020564     2.06270
Zr675      Zr  0.72271127  0.74528371  0.32939544     2.10050
Zr676      Zr  0.78044624  0.79232327  0.36868768     1.78760
O677        O  0.69011813  0.71458712  0.30411981    -0.93770
O678        O  0.81955810  0.82127649  0.38151358    -0.41580
O679        O  0.75253608  0.78480758  0.32444332    -0.78210
O680        O  0.80767276  0.78227664  0.32467339    -0.96900
O681        O  0.80846628  0.73295036  0.28583319    -0.90200
O682        O  0.74965797  0.73462532  0.28511676    -0.93040
C683        C  0.78675981  0.76191880  0.43813245     1.00710
C684        C  0.70739484  0.70316549  0.38782157     1.13640
C685        C  0.84379208  0.69074899  0.39326902     1.04420
O686        O  0.87151395  0.76723928  0.35595303    -0.95200
O687        O  0.85393115  0.77335027  0.28910345    -0.90940
O688        O  0.82060265  0.79147460  0.25872044    -0.84090
C689        C  0.84549700  0.78917049  0.26653137     1.11060
O690        O  0.77237936  0.64643198  0.30968254    -0.97170
Zr691      Zr  0.77850453  0.69414223  0.29038101     1.88940
O692        O  0.78380433  0.74978544  0.23222581    -0.73820
O693        O  0.87066109  0.71252717  0.30416672    -0.53080
O694        O  0.81804742  0.66567481  0.27607677    -0.97760
O695        O  0.74104188  0.67029701  0.26477160    -0.54980
O696        O  0.78525307  0.70202662  0.23584386    -0.74340
C697        C  0.78631940  0.72497568  0.22054243     0.98010
O698        O  0.77554689  0.82184793  0.26288538    -0.63160
O699        O  0.69130521  0.77877514  0.35341992    -0.57960
O700        O  0.73505945  0.78785135  0.26223099    -0.94640
O701        O  0.69956804  0.77325945  0.29084183    -0.93070
O702        O  0.74255998  0.81570940  0.39452306    -0.93420
O703        O  0.77549581  0.84096148  0.35168550    -0.92210
C704        C  0.70950392  0.78687999  0.26844753     1.16850
H705        H  0.73888792  0.75647267  0.39193163     0.32790
H706        H  0.81871699  0.79869839  0.32121208     0.43650
H707        H  0.73838528  0.73279339  0.26721354     0.37170
H708        H  0.81589473  0.68382456  0.33862215     0.33650
H709        H  0.81395468  0.83212410  0.39990616     0.25440
H710        H  0.88725321  0.71520638  0.31656818     0.31380
H711        H  0.81248092  0.65530578  0.25742408     0.37290
H712        H  0.75111760  0.82907375  0.40904977     0.31750
H713        H  0.67309861  0.77066844  0.34987419     0.30620
H714        H  0.67221898  0.72351946  0.30824399     0.32300
H715        H  0.74985415  0.65753398  0.24965814     0.31270
H716        H  0.78003893  0.84024301  0.32971864     0.35270
H717        H  0.79015655  0.83263671  0.27308116     0.28000
H718        H  0.77568525  0.67344697  0.42751125     0.32240
H719        H  0.77630657  0.63350785  0.29233086     0.35090
H720        H  0.69435869  0.77679089  0.37559563     0.27700
H721        H  0.78049192  0.82136645  0.24101293     0.40570
H722        H  0.86790373  0.76462654  0.37793763     0.30620
H723        H  0.83337122  0.80767692  0.38896831     0.38240
H724        H  0.73200483  0.68494409  0.25230770     0.30090
H725        H  0.86541348  0.69268625  0.30778957     0.30150
H726        H  0.78211425  0.65564790  0.39790209     0.30420
Zr727      Zr  0.79867353  0.77421131  0.12911614     2.17510
O728        O  0.80331323  0.80889990  0.17053738    -0.51940
O729        O  0.79387199  0.74910326  0.17593849    -0.75140
O730        O  0.75779842  0.80015537  0.14321433    -0.81930
O731        O  0.87889693  0.76627024  0.11945043    -0.83670
O732        O  0.72346270  0.77963686  0.11650861    -0.79290
O733        O  0.84424219  0.79374885  0.13666928    -0.90930
O734        O  0.79214014  0.70161539  0.17173335    -0.76890
O735        O  0.76989455  0.73423299  0.12309454    -0.86380
O736        O  0.82848709  0.73500613  0.12354770    -0.86070
O737        O  0.77075617  0.78420267  0.08515416    -0.72830
O738        O  0.82534311  0.78577891  0.08549289    -0.84970
Zr739      Zr  0.80001752  0.71426072  0.02837071     2.26420
Zr740      Zr  0.74246909  0.74304691  0.07865848     2.06270
Zr741      Zr  0.85440949  0.74519531  0.07858559     2.10050
Zr742      Zr  0.80007886  0.69497249  0.11704971     1.78760
O743        O  0.88690358  0.78086121  0.06310986    -0.93770
O744        O  0.76207122  0.66436935  0.12891386    -0.41580
O745        O  0.82705404  0.70382007  0.07228834    -0.78210
O746        O  0.77310097  0.70322135  0.07258113    -0.96900
O747        O  0.76943087  0.75329447  0.03452548    -0.90200
O748        O  0.82748706  0.75473274  0.03434748    -0.93040
C749        C  0.79112087  0.72462859  0.18736958     1.00710
C750        C  0.86977122  0.78766229  0.13382286     1.13640
C751        C  0.73264654  0.79794929  0.13657051     1.04420
O752        O  0.70818431  0.71734157  0.10684303    -0.95200
O753        O  0.72519456  0.70580307  0.04062917    -0.90940
O754        O  0.75949105  0.68925225  0.01034118    -0.84090
C755        C  0.73450678  0.68923206  0.01873440     1.11060
O756        O  0.79864986  0.84211048  0.06126597    -0.97170
Zr757      Zr  0.79748944  0.79382974  0.04133913     1.88940
O758        O  0.79366146  0.73719058  0.48240751    -0.73820
O759        O  0.70713578  0.76742861  0.05007263    -0.53080
O760        O  0.75685336  0.81989836  0.02619891    -0.97760
O761        O  0.83556555  0.81943284  0.01968231    -0.54980
O762        O  0.79215041  0.78493941  0.48649356    -0.74340
C763        C  0.79119000  0.76185699  0.47107307     0.98010
O764        O  0.80887557  0.67146182  0.99837711    -0.63160
O765        O  0.88528579  0.70749392  0.09414807    -0.57960
O766        O  0.84732829  0.70274488  0.01449414    -0.94640
O767        O  0.88060770  0.72899610  0.03592494    -0.93070
O768        O  0.83934144  0.67392498  0.14215549    -0.93420
O769        O  0.80749065  0.64651040  0.09951200    -0.92210
C770        C  0.87255717  0.70951990  0.01817744     1.16850
H771        H  0.83998198  0.73290846  0.14123977     0.32790
H772        H  0.76329269  0.68590077  0.06931387     0.43650
H773        H  0.83866459  0.75771089  0.01661124     0.37170
H774        H  0.76007843  0.80124141  0.08759726     0.33650
H775        H  0.76804369  0.65359917  0.14699308     0.25440
H776        H  0.69042651  0.76475199  0.06221126     0.31380
H777        H  0.76175648  0.82939727  0.50790596     0.37290
H778        H  0.83160909  0.66061680  0.15704417     0.31750
H779        H  0.90362532  0.71573813  0.09245603     0.30620
H780        H  0.90500353  0.77199468  0.06599838     0.32300
H781        H  0.84122733  0.80574938  0.50112893     0.31270
H782        H  0.80527108  0.64731254  0.07710552     0.35270
H783        H  0.79818657  0.65620766  0.00777668     0.28000
H784        H  0.79299064  0.80157620  0.18808402     0.32240
H785        H  0.79841921  0.85446212  0.04317691     0.35090
H786        H  0.88229194  0.70563428  0.11633951     0.27700
H787        H  0.80051377  0.67464328  0.97817072     0.40570
H788        H  0.71260616  0.72088897  0.12854935     0.30620
H789        H  0.74775863  0.67734874  0.13673266     0.38240
H790        H  0.84967258  0.81645180  0.53362087     0.30090
H791        H  0.71135604  0.78774076  0.05259468     0.30150
H792        H  0.79346685  0.82634070  0.16464182     0.30420
Zr793      Zr  0.62110587  0.42226055  0.07131223     2.17510
O794        O  0.61430774  0.45680015  0.03123690    -0.51940
O795        O  0.58637250  0.44651554  0.10145235    -0.75140
O796        O  0.58334934  0.40949417  0.03709144    -0.81930
O797        O  0.68655438  0.45982567  0.10278053    -0.83670
O798        O  0.57273459  0.37731050  0.06965545    -0.79290
O799        O  0.64421123  0.46584383  0.08228096    -0.90930
O800        O  0.58878941  0.42805508  0.14888221    -0.76890
O801        O  0.59958414  0.38723242  0.10131802    -0.86380
O802        O  0.64613284  0.42175679  0.11815457    -0.86070
O803        O  0.62792124  0.37844239  0.04320321    -0.72830
O804        O  0.66844257  0.41201848  0.05996554    -0.84970
Zr805      Zr  0.67765295  0.33079264  0.10483234     2.26420
Zr806      Zr  0.60757354  0.34307399  0.07487689     2.06270
Zr807      Zr  0.69310795  0.40923823  0.10749717     2.10050
Zr808      Zr  0.62376245  0.38842023  0.14765980     1.78760
O809        O  0.73105722  0.43097147  0.08135499    -0.93770
O810        O  0.58385771  0.36401203  0.16642748    -0.41580
O811        O  0.67005414  0.37367182  0.13505140    -0.78210
O812        O  0.63240000  0.34412425  0.12145335    -0.96900
O813        O  0.65298624  0.33250980  0.05885883    -0.90200
O814        O  0.69883493  0.36723326  0.07678767    -0.93040
C815        C  0.57857768  0.44571407  0.12930778     1.00710
C816        C  0.66694945  0.47509467  0.09255359     1.13640
C817        C  0.57013706  0.38713930  0.04324876     1.04420
O818        O  0.56498354  0.31823238  0.07988974    -0.95200
O819        O  0.60816589  0.30172889  0.10527389    -0.90940
O820        O  0.65154375  0.28819955  0.10541951    -0.84090
C821        C  0.62652599  0.28360488  0.09969085     1.11060
O822        O  0.65931556  0.39599584  0.48638653    -0.97170
Zr823      Zr  0.67418009  0.36932732  0.03050509     1.88940
O824        O  0.71233335  0.30968818  0.06476018    -0.73820
O825        O  0.60383090  0.31584497  0.02756599    -0.53080
O826        O  0.65959966  0.33691424  0.99032494    -0.97760
O827        O  0.71166013  0.39677471  0.01038244    -0.54980
O828        O  0.71027326  0.33486153  0.02086185    -0.74340
C829        C  0.72015028  0.31434569  0.03628446     0.98010
O830        O  0.68148006  0.29734190  0.14670586    -0.63160
O831        O  0.70589797  0.42568500  0.15819388    -0.57960
O832        O  0.70551572  0.34934466  0.14339829    -0.94640
O833        O  0.73303670  0.37970104  0.12291988    -0.93070
O834        O  0.64147273  0.41978832  0.18712058    -0.93420
O835        O  0.63049972  0.36615261  0.19691137    -0.92210
C836        C  0.72913577  0.35590606  0.13595508     1.16850
H837        H  0.64463906  0.43930279  0.12946301     0.32790
H838        H  0.62738459  0.33123884  0.13737208     0.43650
H839        H  0.71777285  0.36340727  0.07268178     0.37170
H840        H  0.61932653  0.37869757  0.02357633     0.33650
H841        H  0.57413542  0.37828094  0.17908115     0.25440
H842        H  0.58432029  0.31184092  0.02476229     0.31380
H843        H  0.67412438  0.33638712  0.47533776     0.37290
H844        H  0.62516944  0.42793471  0.19719992     0.31750
H845        H  0.72288324  0.43629310  0.15500537     0.30620
H846        H  0.74305599  0.43777023  0.09792475     0.32300
H847        H  0.71888301  0.38536688  0.99312051     0.31270
H848        H  0.64565064  0.35259057  0.19350014     0.35270
H849        H  0.69771825  0.30187845  0.15893037     0.28000
H850        H  0.59591668  0.46478191  0.03481378     0.32240
H851        H  0.67066295  0.38907906  0.46920578     0.35090
H852        H  0.69220558  0.44038863  0.16342841     0.27700
H853        H  0.66617555  0.30220467  0.16048636     0.40570
H854        H  0.55764100  0.32464571  0.09982475     0.30620
H855        H  0.57216610  0.36145126  0.14827109     0.38240
H856        H  0.72596537  0.39563491  0.02617967     0.30090
H857        H  0.60850440  0.32897194  0.01103716     0.30150
H858        H  0.61274977  0.44568181  0.01209782     0.30420
Zr859      Zr  0.62561813  0.06107077  0.08001460     2.17510
O860        O  0.61983656  0.02947371  0.12301200    -0.51940
O861        O  0.59019298  0.03719870  0.04942868    -0.75140
O862        O  0.59226122  0.07125521  0.11995645    -0.81930
O863        O  0.68635665  0.02168014  0.04155776    -0.83670
O864        O  0.57486070  0.10464656  0.09177771    -0.79290
O865        O  0.64997046  0.01804524  0.07333642    -0.90930
O866        O  0.59044279  0.05600149  0.50188991    -0.76890
O867        O  0.60172267  0.09479142  0.05006683    -0.86380
O868        O  0.64849380  0.06111121  0.03176556    -0.86070
O869        O  0.63213908  0.10509132  0.10705238    -0.72830
O870        O  0.67333581  0.07081358  0.08840860    -0.84970
Zr871      Zr  0.67655333  0.15255988  0.04265886     2.26420
Zr872      Zr  0.60816977  0.13868526  0.07670333     2.06270
Zr873      Zr  0.69579244  0.07322046  0.03950175     2.10050
Zr874      Zr  0.62478947  0.09423751  0.50247815     1.78760
O875        O  0.73495448  0.05131248  0.06388529    -0.93770
O876        O  0.58439046  0.11798600  0.48294258    -0.41580
O877        O  0.67099276  0.10900353  0.51291357    -0.78210
O878        O  0.63099738  0.13793787  0.02916389    -0.96900
O879        O  0.65416573  0.15073313  0.08999617    -0.90200
O880        O  0.70066464  0.11634822  0.06887811    -0.93040
C881        C  0.58130764  0.03844739  0.02176430     1.00710
C882        C  0.66816279  0.00736760  0.05590586     1.13640
C883        C  0.57664826  0.09275890  0.11754266     1.04420
O884        O  0.56242196  0.15722911  0.06940701    -0.95200
O885        O  0.60149942  0.18223724  0.04982484    -0.90940
O886        O  0.64389342  0.18967096  0.03270046    -0.84090
C887        C  0.61905501  0.19730291  0.03630361     1.11060
O888        O  0.67103304  0.08303118  0.15963338    -0.97170
Zr889      Zr  0.67865896  0.11411197  0.11656630     1.88940
O890        O  0.70982085  0.17667235  0.08194590    -0.73820
O891        O  0.60512378  0.16691465  0.12325168    -0.53080
O892        O  0.66369110  0.14286477  0.15987641    -0.97760
O893        O  0.72034494  0.09016776  0.13241433    -0.54980
O894        O  0.71206066  0.15038599  0.12497135    -0.74340
C895        C  0.71937047  0.17185411  0.10972516     0.98010
O896        O  0.68161391  0.18749080  0.50214661    -0.63160
O897        O  0.70791011  0.05698478  0.48828133    -0.57960
O898        O  0.70492496  0.13593969  0.50284578    -0.94640
O899        O  0.73353652  0.10484940  0.52159946    -0.93070
O900        O  0.64169531  0.06198066  0.46308152    -0.93420
O901        O  0.63142544  0.11710096  0.45356473    -0.92210
C902        C  0.72892077  0.12904259  0.50909361     1.16850
H903        H  0.64615274  0.04351744  0.02082681     0.32790
H904        H  0.62266976  0.14990479  0.51393560     0.43650
H905        H  0.71946837  0.12118699  0.07198610     0.37170
H906        H  0.62480302  0.10606038  0.12728124     0.33650
H907        H  0.57660353  0.10447644  0.46802146     0.25440
H908        H  0.61474167  0.18459630  0.11830386     0.31380
H909        H  0.67969321  0.14412550  0.17346727     0.37290
H910        H  0.62531815  0.05606487  0.45168156     0.31750
H911        H  0.72493364  0.04602895  0.49106637     0.30620
H912        H  0.74343654  0.03952895  0.04766202     0.32300
H913        H  0.72714904  0.10133800  0.14997212     0.31270
H914        H  0.64390759  0.13289357  0.45806345     0.35270
H915        H  0.69946926  0.18499987  0.49235258     0.28000
H916        H  0.63831490  0.02645982  0.13134403     0.32240
H917        H  0.68181875  0.09095600  0.17667352     0.35090
H918        H  0.69415743  0.04259918  0.48303456     0.27700
H919        H  0.66896358  0.18144112  0.48580300     0.40570
H920        H  0.55543390  0.14681023  0.05139842     0.30620
H921        H  0.57145297  0.11807320  0.50020771     0.38240
H922        H  0.73360743  0.09361017  0.11594896     0.30090
H923        H  0.58581666  0.17272257  0.12456162     0.30150
H924        H  0.61471802  0.01103800  0.11409303     0.30420
Zr925      Zr  0.95873162  0.06315645  0.29809341     2.17510
O926        O  0.96299848  0.05331136  0.24283900    -0.51940
O927        O  0.98626383  0.03356503  0.33310304    -0.75140
O928        O  0.00242270  0.06984479  0.27319146    -0.81930
O929        O  0.89590675  0.02782083  0.33284084    -0.83670
O930        O  0.00575686  0.10335464  0.30661387    -0.79290
O931        O  0.92081397  0.03274387  0.29188201    -0.90930
O932        O  0.99023946  0.05909535  0.37696558    -0.76890
O933        O  0.97975413  0.09807846  0.32945082    -0.86380
O934        O  0.93360407  0.06562105  0.34548139    -0.86070
O935        O  0.95357081  0.10666687  0.27089024    -0.72830
O936        O  0.91127582  0.07425292  0.28877787    -0.84970
Zr937      Zr  0.90408115  0.15591538  0.32833707     2.26420
Zr938      Zr  0.97401922  0.14115834  0.30301092     2.06270
Zr939      Zr  0.88627355  0.07899841  0.33624467     2.10050
Zr940      Zr  0.95565691  0.09926700  0.37541581     1.78760
O941        O  0.84630987  0.06173253  0.30953490    -0.93770
O942        O  0.99570437  0.12396685  0.39383805    -0.41580
O943        O  0.91014715  0.11542749  0.36192032    -0.78210
O944        O  0.94805821  0.14356877  0.34916460    -0.96900
O945        O  0.92966082  0.15182757  0.28365319    -0.90200
O946        O  0.88140788  0.11846010  0.30283869    -0.93040
C947        C  0.99673472  0.03745795  0.35975627     1.00710
C948        C  0.91342809  0.01773109  0.31387804     1.13640
C949        C  0.01323909  0.09302259  0.28135221     1.04420
O950        O  0.01410928  0.16974024  0.31019367    -0.95200
O951        O  0.97145735  0.18263377  0.33160272    -0.90940
O952        O  0.93121105  0.19674688  0.31556873    -0.84090
C953        C  0.95626439  0.20118791  0.32052015     1.11060
O954        O  0.92352402  0.09101062  0.21068069    -0.97170
Zr955      Zr  0.90709565  0.11468212  0.25683540     1.88940
O956        O  0.86799074  0.17201239  0.29193366    -0.73820
O957        O  0.98791210  0.16173900  0.25489088    -0.53080
O958        O  0.91842586  0.15042289  0.21933279    -0.97760
O959        O  0.87435910  0.08245870  0.23408278    -0.54980
O960        O  0.86851366  0.14580136  0.24842117    -0.74340
C961        C  0.85899493  0.16605057  0.26478920     0.98010
O962        O  0.88747305  0.19934573  0.35173905    -0.63160
O963        O  0.86970468  0.05925119  0.38369823    -0.57960
O964        O  0.88055831  0.14968827  0.37388323    -0.94640
O965        O  0.85312677  0.11395413  0.36137416    -0.93070
O966        O  0.93547557  0.06944369  0.41414614    -0.93420
O967        O  0.94993730  0.12100766  0.42552371    -0.92210
C968        C  0.85735771  0.13870581  0.37370735     1.16850
H969        H  0.93527524  0.04814702  0.35653503     0.32790
H970        H  0.95195603  0.15679199  0.36551099     0.43650
H971        H  0.86222279  0.12151477  0.29965375     0.37170
H972        H  0.96343083  0.10594114  0.25204640     0.33650
H973        H  0.00672688  0.10926922  0.40410133     0.25440
H974        H  0.97192393  0.16028321  0.24133947     0.31380
H975        H  0.90400763  0.14935135  0.20364829     0.37290
H976        H  0.94677716  0.05203305  0.41422905     0.31750
H977        H  0.85567545  0.04555202  0.37731535     0.30620
H978        H  0.83079051  0.06948331  0.32137511     0.32300
H979        H  0.86454445  0.09390306  0.21876957     0.31270
H980        H  0.93513425  0.13505073  0.42275300     0.35270
H981        H  0.90371836  0.20796740  0.36116921     0.28000
H982        H  0.97645737  0.03864669  0.23689742     0.32240
H983        H  0.91230365  0.09846631  0.19379692     0.35090
H984        H  0.88490052  0.04740433  0.39125117     0.27700
H985        H  0.88264637  0.21197691  0.33466691     0.40570
H986        H  0.01988296  0.16580704  0.33138422     0.30620
H987        H  0.00609871  0.12844782  0.37521502     0.38240
H988        H  0.86082665  0.07937809  0.25036187     0.30090
H989        H  0.99015584  0.18218747  0.25895935     0.30150
H990        H  0.94516323  0.04659339  0.23555076     0.30420
Zr991      Zr  0.94870793  0.43601881  0.34608944     2.17510
O992        O  0.95803977  0.48036802  0.37226868    -0.51940
O993        O  0.98408915  0.45950255  0.31617006    -0.75140
O994        O  0.97821617  0.43217801  0.39109027    -0.81930
O995        O  0.87750641  0.45874494  0.31037653    -0.83670
O996        O  0.00239937  0.39676911  0.37202083    -0.79290
O997        O  0.91660546  0.47217009  0.33397673    -0.90930
O998        O  0.99107485  0.43398339  0.27315363    -0.76890
O999        O  0.97699160  0.40105222  0.32399310    -0.86380
O1000       O  0.92887666  0.42757527  0.29698089    -0.86070
O1001       O  0.94296704  0.39667778  0.38058862    -0.72830
O1002       O  0.90173977  0.42134311  0.35232705    -0.84970
Zr1003     Zr  0.90998316  0.33451493  0.32077865     2.26420
Zr1004     Zr  0.97123585  0.36116446  0.35694027     2.06270
Zr1005     Zr  0.88373594  0.40817248  0.30262068     2.10050
Zr1006     Zr  0.95803621  0.39396299  0.27493757     1.78760
O1007       O  0.83702012  0.41970655  0.31636157    -0.93770
O1008       O  0.00056637  0.37036884  0.26136123    -0.41580
O1009       O  0.91367838  0.37254334  0.28356921    -0.78210
O1010       O  0.95323301  0.35377393  0.30671249    -0.96900
O1011       O  0.92646655  0.34541874  0.36944786    -0.90200
O1012       O  0.87998800  0.37050905  0.33821756    -0.93040
C1013       C  0.99660652  0.45528687  0.29080301     1.00710
C1014       C  0.89310110  0.47721352  0.32268611     1.13640
C1015       C  0.99630479  0.41285610  0.39413539     1.04420
O1016       O  0.01698330  0.34629580  0.37182447    -0.95200
O1017       O  0.98875139  0.32182098  0.33015869    -0.90940
O1018       O  0.94872234  0.30080048  0.31940902    -0.84090
C1019       C  0.97501774  0.30159305  0.31936980     1.11060
O1020       O  0.90081269  0.41465775  0.43077160    -0.97170
Zr1021     Zr  0.89692778  0.38275420  0.38709004     1.88940
O1022       O  0.87722765  0.31350288  0.35910865    -0.73820
O1023       O  0.95821765  0.32993924  0.39855980    -0.53080
O1024       O  0.90792388  0.35882026  0.43455144    -0.97760
O1025       O  0.85347154  0.40698312  0.39412095    -0.54980
O1026       O  0.86457190  0.34526883  0.39543452    -0.74340
C1027       C  0.86252712  0.32099895  0.38267910     0.98010
O1028       O  0.89906069  0.28857579  0.29890250    -0.63160
O1029       O  0.87863985  0.42416350  0.25031790    -0.57960
O1030       O  0.87699157  0.32982856  0.28238351    -0.94640
O1031       O  0.85460269  0.37160600  0.27696357    -0.93070
O1032       O  0.94066416  0.42109326  0.23212830    -0.93420
O1033       O  0.95676488  0.36664957  0.22764758    -0.92210
C1034       C  0.85730223  0.34455219  0.27244737     1.16850
H1035       H  0.92865901  0.44454152  0.28490552     0.32790
H1036       H  0.96205666  0.34147009  0.29217437     0.43650
H1037       H  0.86144713  0.36409050  0.33905125     0.37170
H1038       H  0.94788704  0.39914182  0.40171559     0.33650
H1039       H  0.00864194  0.38230879  0.24540219     0.25440
H1040       H  0.97375140  0.31701717  0.40213903     0.31380
H1041       H  0.89067884  0.35809928  0.44610285     0.37290
H1042       H  0.95699487  0.42918968  0.22251822     0.31750
H1043       H  0.85882552  0.42678435  0.24759955     0.30620
H1044       H  0.82826850  0.42509922  0.29692837     0.32300
H1045       H  0.84489706  0.39755162  0.41166807     0.31270
H1046       H  0.94708808  0.34912357  0.23300035     0.35270
H1047       H  0.91235699  0.28567501  0.28222814     0.28000
H1048       H  0.97777758  0.48359737  0.37009893     0.32240
H1049       H  0.88475303  0.41112262  0.44370298     0.35090
H1050       H  0.88596160  0.44358424  0.25033633     0.27700
H1051       H  0.90398672  0.27455377  0.31462405     0.40570
H1052       H  0.01519816  0.32817144  0.38264681     0.30620
H1053       H  0.01239529  0.37314670  0.27936697     0.38240
H1054       H  0.84237868  0.40114786  0.37638091     0.30090
H1055       H  0.95641199  0.34151128  0.41735915     0.30150
H1056       H  0.95533667  0.47678502  0.39421235     0.30420
Zr1057     Zr  0.76053988  0.22621104  0.49797092     2.17510
O1058       O  0.71748837  0.23173236  0.52303416    -0.51940
O1059       O  0.78258963  0.22743143  0.04676428    -0.75140
O1060       O  0.74518912  0.17662783  0.00790129    -0.81930
O1061       O  0.75481119  0.30476116  0.49575047    -0.83670
O1062       O  0.76784708  0.14234496  0.48129120    -0.79290
O1063       O  0.73991295  0.26802403  0.02376429    -0.90930
O1064       O  0.82682593  0.23961976  0.04181171    -0.76890
O1065       O  0.79936115  0.19652634  0.49271280    -0.86380
O1066       O  0.79758461  0.25820570  0.49542323    -0.86070
O1067       O  0.75251579  0.20073398  0.45116466    -0.72830
O1068       O  0.75174092  0.25689875  0.45530907    -0.84970
Zr1069     Zr  0.82337883  0.23132242  0.40196402     2.26420
Zr1070     Zr  0.79227435  0.17098271  0.44562518     2.06270
Zr1071     Zr  0.78931620  0.28891003  0.45396792     2.10050
Zr1072     Zr  0.83676060  0.22832335  0.98980242     1.78760
O1073       O  0.76241192  0.32357205  0.42623607    -0.93770
O1074       O  0.85425267  0.18882245  0.01947820    -0.41580
O1075       O  0.82857695  0.25881308  0.44781877    -0.78210
O1076       O  0.83105846  0.20097406  0.44422044    -0.96900
O1077       O  0.78559712  0.20078077  0.40234666    -0.90200
O1078       O  0.78481285  0.26220698  0.40760642    -0.93040
C1079       C  0.80501210  0.23698909  0.05707912     1.00710
C1080       C  0.74022044  0.29468601  0.01803986     1.13640
C1081       C  0.74968570  0.15031122  0.00030625     1.04420
O1082       O  0.82203886  0.13502239  0.46719564    -0.95200
O1083       O  0.82013626  0.14700429  0.40761781    -0.90940
O1084       O  0.83918260  0.18424018  0.38330365    -0.84090
C1085       C  0.83657467  0.15734814  0.38823215     1.11060
O1086       O  0.69921433  0.22601926  0.42036728    -0.97170
Zr1087     Zr  0.74713488  0.23132184  0.40781657     1.88940
O1088       O  0.80505626  0.23743131  0.35119809    -0.73820
O1089       O  0.76181309  0.14095445  0.41616830    -0.53080
O1090       O  0.72828773  0.19138878  0.37968213    -0.97760
O1091       O  0.71974464  0.27213640  0.39307797    -0.54980
O1092       O  0.75897449  0.24023364  0.35426685    -0.74340
C1093       C  0.78144562  0.24126791  0.33931614     0.98010
O1094       O  0.87266012  0.23354247  0.39892787    -0.63160
O1095       O  0.81176758  0.32669468  0.48208239    -0.57960
O1096       O  0.84304348  0.27522301  0.38509842    -0.94640
O1097       O  0.82668098  0.30805739  0.41922517    -0.93070
O1098       O  0.86713307  0.26706573  0.00238372    -0.93420
O1099       O  0.88428452  0.22101593  0.97596357    -0.92210
C1100       C  0.84258533  0.30031163  0.39648916     1.16850
H1101       H  0.79846548  0.27063121  0.01292291     0.32790
H1102       H  0.84720193  0.18960490  0.44108814     0.43650
H1103       H  0.78367297  0.27526756  0.39086894     0.37170
H1104       H  0.73642065  0.18934539  0.45276660     0.33650
H1105       H  0.86739256  0.19744144  0.03381515     0.25440
H1106       H  0.76720019  0.12139667  0.42147386     0.31380
H1107       H  0.74303965  0.18485445  0.36593017     0.37290
H1108       H  0.87510632  0.26200380  0.02234044     0.31750
H1109       H  0.79922396  0.34308628  0.48049771     0.30620
H1110       H  0.77505893  0.33932520  0.42255048     0.32300
H1111       H  0.71167240  0.26678829  0.37319785     0.31270
H1112       H  0.88634386  0.20046806  0.47237392     0.35270
H1113       H  0.87807017  0.24807770  0.41409286     0.28000
H1114       H  0.71574394  0.21337766  0.03290026     0.32240
H1115       H  0.68954490  0.22502047  0.40060553     0.35090
H1116       H  0.81096982  0.32108099  0.00358402     0.27700
H1117       H  0.87896511  0.21567594  0.40824317     0.40570
H1118       H  0.83656173  0.14577767  0.97761598     0.30620
H1119       H  0.83895151  0.18296008  0.03253995     0.38240
H1120       H  0.73305590  0.28692720  0.38804584     0.30090
H1121       H  0.74368975  0.14363619  0.42556257     0.30150
H1122       H  0.70392773  0.23256356  0.50642251     0.30420
Zr1123     Zr  0.75995544  0.25922288  0.14710850     2.17510
O1124       O  0.71612249  0.25429988  0.12345637    -0.51940
O1125       O  0.78198149  0.25554955  0.09838406    -0.75140
O1126       O  0.74461368  0.30854244  0.13671169    -0.81930
O1127       O  0.75322636  0.18178895  0.15052207    -0.83670
O1128       O  0.76928577  0.34244145  0.16083651    -0.79290
O1129       O  0.73873531  0.21831397  0.12121069    -0.90930
O1130       O  0.82663420  0.24408305  0.10349483    -0.76890
O1131       O  0.79961079  0.28729365  0.15126021    -0.86380
O1132       O  0.79637805  0.22597962  0.15060331    -0.86070
O1133       O  0.75296719  0.28644307  0.19321220    -0.72830
O1134       O  0.75000884  0.23052653  0.19085322    -0.84970
Zr1135     Zr  0.82171690  0.25446307  0.24311426     2.26420
Zr1136     Zr  0.79346454  0.31459029  0.19751034     2.06270
Zr1137     Zr  0.78677620  0.19704128  0.19286832     2.10050
Zr1138     Zr  0.83620299  0.25405729  0.15570923     1.78760
O1139       O  0.75841177  0.16505427  0.22176358    -0.93770
O1140       O  0.85664762  0.29365019  0.12931643    -0.41580
O1141       O  0.82701183  0.22517444  0.19851401    -0.78210
O1142       O  0.83137713  0.28295890  0.20020324    -0.96900
O1143       O  0.78511224  0.28687723  0.24195221    -0.90200
O1144       O  0.78270480  0.22495902  0.23854435    -0.93040
C1145       C  0.80478513  0.24641442  0.08818148     1.00710
C1146       C  0.73884540  0.19182447  0.12761254     1.13640
C1147       C  0.75002571  0.33467413  0.14344384     1.04420
O1148       O  0.82347068  0.34905335  0.17461815    -0.95200
O1149       O  0.82297397  0.33784296  0.23424007    -0.90940
O1150       O  0.83823957  0.30036137  0.26155959    -0.84090
C1151       C  0.83762000  0.32702718  0.25528001     1.11060
O1152       O  0.69851409  0.26559938  0.22476711    -0.97170
Zr1153     Zr  0.74614072  0.25767389  0.23766468     1.88940
O1154       O  0.80455055  0.25075889  0.29416076    -0.73820
O1155       O  0.76444333  0.34738055  0.22605029    -0.53080
O1156       O  0.72882994  0.29916532  0.26497898    -0.97760
O1157       O  0.71706945  0.21915505  0.25376436    -0.54980
O1158       O  0.75854243  0.24875257  0.29144349    -0.74340
C1159       C  0.78115335  0.24745375  0.30627557     0.98010
O1160       O  0.87045737  0.25222955  0.25125552    -0.63160
O1161       O  0.80746535  0.15634328  0.16727508    -0.57960
O1162       O  0.83787936  0.21023512  0.26223716    -0.94640
O1163       O  0.82378277  0.17738019  0.22725687    -0.93070
O1164       O  0.86462567  0.21435245  0.13949274    -0.93420
O1165       O  0.88354935  0.25454342  0.17192137    -0.92210
C1166       C  0.83830864  0.18531272  0.25076737     1.16850
H1167       H  0.79714529  0.21334668  0.13323250     0.32790
H1168       H  0.84787273  0.29348257  0.20325461     0.43650
H1169       H  0.78128091  0.21236299  0.25564329     0.37170
H1170       H  0.73723419  0.29861396  0.19144180     0.33650
H1171       H  0.87112397  0.28494835  0.11658759     0.25440
H1172       H  0.77000863  0.36637597  0.21928231     0.31380
H1173       H  0.74343639  0.30443629  0.27940034     0.37290
H1174       H  0.85300932  0.19757994  0.14214743     0.31750
H1175       H  0.79367530  0.14130551  0.16862462     0.30620
H1176       H  0.77113505  0.15035191  0.22922179     0.32300
H1177       H  0.70943677  0.22551144  0.27357551     0.31270
H1178       H  0.88754881  0.27453886  0.17684410     0.35270
H1179       H  0.87686148  0.23743779  0.23676644     0.28000
H1180       H  0.71262754  0.27276689  0.11388470     0.32240
H1181       H  0.68885944  0.26777868  0.24445247     0.35090
H1182       H  0.80780924  0.16140478  0.14544017     0.27700
H1183       H  0.87762722  0.26989607  0.24258564     0.40570
H1184       H  0.82744356  0.34136767  0.15402285     0.30620
H1185       H  0.84274550  0.29994554  0.11449855     0.38240
H1186       H  0.72974856  0.20361944  0.25907449     0.30090
H1187       H  0.74601739  0.34489332  0.21747485     0.30150
H1188       H  0.70342469  0.25279517  0.14083476     0.30420
Zr1189     Zr  0.47389262  0.08230064  0.19933838     2.17510
O1190       O  0.51262278  0.06805470  0.16878044    -0.51940
O1191       O  0.49607265  0.04503728  0.22770271    -0.75140
O1192       O  0.50538891  0.11384111  0.22438221    -0.81930
O1193       O  0.43595429  0.02838923  0.17540182    -0.83670
O1194       O  0.49697815  0.15883147  0.21684935    -0.79290
O1195       O  0.46481076  0.05618681  0.15241138    -0.90930
O1196       O  0.47606885  0.04467333  0.27421005    -0.76890
O1197       O  0.46757124  0.10659654  0.24678699    -0.86380
O1198       O  0.44049648  0.05452286  0.22399196    -0.86070
O1199       O  0.46003111  0.13065995  0.18780512    -0.72830
O1200       O  0.43394114  0.08626202  0.16888545    -0.84970
Zr1201     Zr  0.37849628  0.12819216  0.22694358     2.26420
Zr1202     Zr  0.45082738  0.15404245  0.23666501     2.06270
Zr1203     Zr  0.40013446  0.05906393  0.19335695     2.10050
Zr1204     Zr  0.43575959  0.07767326  0.27153961     1.78760
O1205       O  0.37309995  0.06309730  0.14678429    -0.93770
O1206       O  0.46252709  0.09537385  0.31424887    -0.41580
O1207       O  0.39511016  0.08212521  0.24096452    -0.78210
O1208       O  0.41810387  0.12464325  0.26105166    -0.96900
O1209       O  0.41226216  0.15605833  0.20327544    -0.90200
O1210       O  0.38580670  0.10617436  0.17972831    -0.93040
C1211       C  0.49450667  0.03605269  0.25504866     1.00710
C1212       C  0.44770124  0.03601615  0.15122856     1.13640
C1213       C  0.51234100  0.13724020  0.21300285     1.04420
O1214       O  0.46588732  0.15692028  0.28943148    -0.95200
O1215       O  0.41492013  0.19063740  0.24729369    -0.90940
O1216       O  0.38331344  0.16209039  0.26547626    -0.84090
C1217       C  0.39148173  0.18641256  0.25947259     1.11060
O1218       O  0.45212057  0.12148411  0.11446253    -0.97170
Zr1219     Zr  0.42087837  0.13287530  0.15600507     1.88940
O1220       O  0.35801286  0.16297679  0.18791463    -0.73820
O1221       O  0.46622509  0.20291349  0.23781614    -0.53080
O1222       O  0.44162986  0.17738362  0.14173863    -0.97760
O1223       O  0.39642118  0.11708407  0.11064322    -0.54980
O1224       O  0.38629892  0.16787385  0.14738029    -0.74340
C1225       C  0.36454332  0.17430900  0.16162656     0.98010
O1226       O  0.33917326  0.13058075  0.26061301    -0.63160
O1227       O  0.37960342  0.01212181  0.19507961    -0.57960
O1228       O  0.34215039  0.09355059  0.22400831    -0.94640
O1229       O  0.36433754  0.05217614  0.22902622    -0.93070
O1230       O  0.41471569  0.03385951  0.28753777    -0.93420
O1231       O  0.40897281  0.08204969  0.31804694    -0.92210
C1232       C  0.34260700  0.06667798  0.22788470     1.16850
H1233       H  0.44548417  0.03498969  0.22724154     0.32790
H1234       H  0.41507715  0.13188576  0.28142977     0.43650
H1235       H  0.36895480  0.10793390  0.16869304     0.37170
H1236       H  0.47361553  0.13955946  0.17558606     0.33650
H1237       H  0.46440701  0.07905451  0.32807772     0.25440
H1238       H  0.48378126  0.20271899  0.24880879     0.31380
H1239       H  0.43391344  0.18191103  0.12150666     0.37290
H1240       H  0.42787115  0.02536333  0.30193267     0.31750
H1241       H  0.36582726  0.01135551  0.17868219     0.30620
H1242       H  0.35399738  0.06533092  0.15324528     0.32300
H1243       H  0.39808988  0.13280939  0.09605213     0.31270
H1244       H  0.39093554  0.08881012  0.31111430     0.35270
H1245       H  0.34600840  0.12129463  0.27925700     0.28000
H1246       H  0.52808181  0.06821733  0.18310985     0.32240
H1247       H  0.44881795  0.13593479  0.09869563     0.35090
H1248       H  0.39383422  0.99825818  0.18906984     0.27700
H1249       H  0.33644964  0.15029709  0.26733395     0.40570
H1250       H  0.48589486  0.15502548  0.28824906     0.30620
H1251       H  0.48100245  0.09795954  0.30589537     0.38240
H1252       H  0.37699150  0.11732609  0.11638674     0.30090
H1253       H  0.47082718  0.20744068  0.21645956     0.30150
H1254       H  0.51530277  0.08401569  0.15484337     0.30420
Zr1255     Zr  0.10358716  0.08745538  0.21413836     2.17510
O1256       O  0.06897283  0.06764695  0.24680390    -0.51940
O1257       O  0.07796512  0.05032536  0.18891376    -0.75140
O1258       O  0.07529420  0.11997248  0.18531713    -0.81930
O1259       O  0.14071693  0.04070207  0.25517739    -0.83670
O1260       O  0.08653706  0.16468326  0.19180354    -0.79290
O1261       O  0.11809377  0.07991561  0.26643525    -0.90930
O1262       O  0.09894917  0.04252029  0.14381398    -0.76890
O1263       O  0.11137477  0.10822985  0.16615592    -0.86380
O1264       O  0.13284399  0.05236476  0.19224360    -0.86070
O1265       O  0.11956497  0.13412169  0.22684285    -0.72830
O1266       O  0.14994486  0.09627998  0.22057820    -0.84970
Zr1267     Zr  0.20170735  0.11931345  0.19184892     2.26420
Zr1268     Zr  0.13295595  0.15330044  0.17726210     2.06270
Zr1269     Zr  0.17418699  0.05336572  0.22019818     2.10050
Zr1270     Zr  0.14100511  0.07365978  0.14435243     1.78760
O1271       O  0.20020064  0.03852435  0.26424058    -0.93770
O1272       O  0.11469963  0.09214267  0.10174168    -0.41580
O1273       O  0.18353798  0.07447271  0.17313156    -0.78210
O1274       O  0.16364821  0.11866860  0.15610691    -0.96900
O1275       O  0.17071907  0.15313034  0.21227766    -0.90200
O1276       O  0.19144566  0.09770778  0.23889327    -0.93040
C1277       C  0.07926289  0.03783539  0.16294385     1.00710
C1278       C  0.13296491  0.05906034  0.27436990     1.13640
C1279       C  0.06928887  0.14490459  0.19424620     1.04420
O1280       O  0.11338206  0.16180259  0.12717431    -0.95200
O1281       O  0.16808835  0.18093408  0.15029521    -0.90940
O1282       O  0.20827496  0.16036067  0.16311339    -0.84090
C1283       C  0.19428736  0.17925304  0.14978494     1.11060
O1284       O  0.13770649  0.11545664  0.30540789    -0.97170
Zr1285     Zr  0.15923676  0.13159786  0.25869982     1.88940
O1286       O  0.22377391  0.15360279  0.22955296    -0.73820
O1287       O  0.12940915  0.20335248  0.19043380    -0.53080
O1288       O  0.13251480  0.17239319  0.27585914    -0.97760
O1289       O  0.19000976  0.12160843  0.30107113    -0.54980
O1290       O  0.19137439  0.16952436  0.26203858    -0.74340
C1291       C  0.21550887  0.17032947  0.25166902     0.98010
O1292       O  0.24025314  0.11303900  0.15753975    -0.63160
O1293       O  0.17246241  0.00407439  0.20365574    -0.57960
O1294       O  0.23647077  0.08574834  0.20602230    -0.94640
O1295       O  0.21752755  0.04296088  0.19929491    -0.93070
O1296       O  0.15983849  0.02842980  0.12741815    -0.93420
O1297       O  0.16543819  0.07485563  0.09613215    -0.92210
C1298       C  0.23767318  0.05873821  0.20447226     1.16850
H1299       H  0.12580977  0.03340571  0.19150311     0.32790
H1300       H  0.17012944  0.12568944  0.13685930     0.43650
H1301       H  0.20723053  0.09532817  0.25167778     0.37170
H1302       H  0.10619812  0.14528357  0.23742957     0.33650
H1303       H  0.11112844  0.07544696  0.08860524     0.25440
H1304       H  0.11469783  0.21085895  0.17733721     0.31380
H1305       H  0.14300468  0.18054252  0.29301690     0.37290
H1306       H  0.14497319  0.01936073  0.11582353     0.31750
H1307       H  0.15599146  0.99640184  0.21337012     0.30620
H1308       H  0.19954324  0.01762058  0.26343488     0.32300
H1309       H  0.18699337  0.13729825  0.31581894     0.31270
H1310       H  0.18390622  0.08121028  0.10168435     0.35270
H1311       H  0.23636002  0.12374093  0.13874550     0.28000
H1312       H  0.05157722  0.06962359  0.23592601     0.32240
H1313       H  0.13611298  0.13236366  0.31877645     0.35090
H1314       H  0.16809945  0.00466523  0.18166473     0.27700
H1315       H  0.25538841  0.12296487  0.16767845     0.40570
H1316       H  0.09465250  0.15447801  0.12844254     0.30620
H1317       H  0.09669833  0.09714011  0.11037429     0.38240
H1318       H  0.20864366  0.12471072  0.29345790     0.30090
H1319       H  0.12183296  0.20389014  0.21133483     0.30150
H1320       H  0.06761393  0.07959454  0.26524537     0.30420
Zr1321     Zr  0.48568978  0.39707771  0.46552802     2.17510
O1322       O  0.52846450  0.41707251  0.98190719    -0.51940
O1323       O  0.50707753  0.43400302  0.43436856    -0.75140
O1324       O  0.51285575  0.36260024  0.43740481    -0.81930
O1325       O  0.45519897  0.45136900  0.50988242    -0.83670
O1326       O  0.49959189  0.31865109  0.44336628    -0.79290
O1327       O  0.48317851  0.41475555  0.51857796    -0.90930
O1328       O  0.48002348  0.44137517  0.39325279    -0.76890
O1329       O  0.47123844  0.37653727  0.41809467    -0.86380
O1330       O  0.45426322  0.43082046  0.44563532    -0.86070
O1331       O  0.46864316  0.34930524  0.47676448    -0.72830
O1332       O  0.44968489  0.39579596  0.50329203    -0.84970
Zr1333     Zr  0.38520712  0.36452571  0.44843533     2.26420
Zr1334     Zr  0.45231192  0.33021871  0.42802303     2.06270
Zr1335     Zr  0.41928566  0.42957286  0.48151560     2.10050
Zr1336     Zr  0.43929791  0.41000640  0.39911900     1.78760
O1337       O  0.39556276  0.43561425  0.02949871    -0.93770
O1338       O  0.46259606  0.39340709  0.35319306    -0.41580
O1339       O  0.40090164  0.41150461  0.43472551    -0.78210
O1340       O  0.41920863  0.36360303  0.40833574    -0.96900
O1341       O  0.41618328  0.32914858  0.46563411    -0.90200
O1342       O  0.42343487  0.38086918  0.47135149    -0.93040
C1343       C  0.50173469  0.44657987  0.40910737     1.00710
C1344       C  0.47060768  0.43725515  0.52762994     1.13640
C1345       C  0.51760840  0.33786559  0.44702699     1.04420
O1346       O  0.47155302  0.32477078  0.37716989    -0.95200
O1347       O  0.41407358  0.30381746  0.40348672    -0.90940
O1348       O  0.37480561  0.32626368  0.41694505    -0.84090
C1349       C  0.38785322  0.30687460  0.40307594     1.11060
O1350       O  0.44717506  0.35974358  0.06366366    -0.97170
Zr1351     Zr  0.43161771  0.35001470  0.51185866     1.88940
O1352       O  0.36295958  0.33282410  0.48710938    -0.73820
O1353       O  0.45782612  0.27928376  0.43356823    -0.53080
O1354       O  0.46053488  0.31103203  0.02859959    -0.97760
O1355       O  0.39372123  0.37319641  0.03812857    -0.54980
O1356       O  0.39528585  0.31647471  0.51908276    -0.74340
C1357       C  0.37091955  0.31644361  0.50914407     0.98010
O1358       O  0.34773197  0.37634531  0.41450558    -0.63160
O1359       O  0.42045066  0.47798972  0.46314490    -0.57960
O1360       O  0.35901961  0.39161057  0.48502298    -0.94640
O1361       O  0.37175768  0.43641179  0.47810289    -0.93070
O1362       O  0.41777961  0.45502765  0.38695812    -0.93420
O1363       O  0.41075404  0.40872979  0.35380010    -0.92210
C1364       C  0.35389495  0.41802990  0.48340327     1.16850
H1365       H  0.46060356  0.45000566  0.44447290     0.32790
H1366       H  0.41164172  0.35689935  0.38932729     0.43650
H1367       H  0.43703679  0.37897523  0.45579341     0.37170
H1368       H  0.48157615  0.33785320  0.48714470     0.33650
H1369       H  0.46520586  0.41058253  0.34084503     0.25440
H1370       H  0.47325520  0.27403489  0.42013511     0.31380
H1371       H  0.44829989  0.29866292  0.04027123     0.37290
H1372       H  0.43082341  0.46447833  0.37333475     0.31750
H1373       H  0.40555427  0.47902615  0.44803356     0.30620
H1374       H  0.39180501  0.45632261  0.53012266     0.32300
H1375       H  0.38687039  0.35929958  0.05291926     0.31270
H1376       H  0.39260924  0.40335009  0.36138110     0.35270
H1377       H  0.34211720  0.39572140  0.42061910     0.28000
H1378       H  0.54256982  0.40799247  0.96909579     0.32240
H1379       H  0.43674533  0.34665828  0.07656687     0.35090
H1380       H  0.41392392  0.48958687  0.48060743     0.27700
H1381       H  0.35630150  0.37865132  0.39428498     0.40570
H1382       H  0.49091143  0.32980127  0.37956453     0.30620
H1383       H  0.48113021  0.38816153  0.35995936     0.38240
H1384       H  0.40234574  0.38770214  0.05116705     0.30090
H1385       H  0.46478174  0.27668833  0.45453945     0.30150
H1386       H  0.53157047  0.41079459  0.00296817     0.30420
Zr1387     Zr  0.10978508  0.41529769  0.44472231     2.17510
O1388       O  0.07603947  0.40614380  0.40541546    -0.51940
O1389       O  0.08890641  0.45457082  0.47322408    -0.75140
O1390       O  0.08636635  0.39594738  0.48772469    -0.81930
O1391       O  0.14837396  0.42911308  0.39412952    -0.83670
O1392       O  0.07871371  0.35104765  0.48417317    -0.79290
O1393       O  0.11530730  0.45570707  0.41043441    -0.90930
O1394       O  0.11141112  0.45451981  0.01834215    -0.76890
O1395       O  0.11879479  0.39501805  0.49338196    -0.86380
O1396       O  0.14834241  0.44083970  0.46216008    -0.86070
O1397       O  0.11763516  0.36415940  0.43917421    -0.72830
O1398       O  0.14670396  0.40208902  0.41203402    -0.84970
Zr1399     Zr  0.20066078  0.36283031  0.46874359     2.26420
Zr1400     Zr  0.12876236  0.34464726  0.48919479     2.06270
Zr1401     Zr  0.18523487  0.42775424  0.42869550     2.10050
Zr1402     Zr  0.15357655  0.42348051  0.01210068     1.78760
O1403       O  0.20596866  0.44952638  0.38444713    -0.93770
O1404       O  0.13437769  0.40909250  0.06063791    -0.41580
O1405       O  0.19137663  0.41162268  0.47866415    -0.78210
O1406       O  0.16542442  0.37344615  0.00671343    -0.96900
O1407       O  0.16361862  0.33485225  0.45258996    -0.90200
O1408       O  0.19330123  0.37881011  0.41934620    -0.93040
C1409       C  0.09149694  0.46289863  0.50111034     1.00710
C1410       C  0.13575367  0.45227623  0.39296150     1.13640
C1411       C  0.06954283  0.37643794  0.48273002     1.04420
O1412       O  0.11674036  0.33996356  0.04292312    -0.95200
O1413       O  0.16576911  0.30969925  0.00654400    -0.90940
O1414       O  0.20252900  0.33664789  0.01280923    -0.84090
C1415       C  0.19119684  0.31310708  0.01423550     1.11060
O1416       O  0.11700630  0.35767895  0.36632153    -0.97170
Zr1417     Zr  0.15343624  0.35308099  0.40363086     1.88940
O1418       O  0.21943076  0.32802797  0.42944955    -0.73820
O1419       O  0.10913795  0.29861005  0.47809603    -0.53080
O1420       O  0.13065681  0.30765643  0.40021587    -0.97760
O1421       O  0.16910264  0.36444103  0.35248793    -0.54980
O1422       O  0.18884433  0.31883058  0.39220819    -0.74340
C1423       C  0.21198945  0.31481941  0.40463656     0.98010
O1424       O  0.24661764  0.34897416  0.97845351    -0.63160
O1425       O  0.19270429  0.47352861  0.45219859    -0.57960
O1426       O  0.23078985  0.40105830  0.47888444    -0.94640
O1427       O  0.23370327  0.42213711  0.43425447    -0.93070
O1428       O  0.17054314  0.47074545  0.02268583    -0.93420
O1429       O  0.18855254  0.42485956  0.05131581    -0.92210
C1430       C  0.24389862  0.41583727  0.45996988     1.16850
H1431       H  0.14457906  0.46085472  0.46284510     0.32790
H1432       H  0.16987350  0.36796430  0.02726130     0.43650
H1433       H  0.20872939  0.37585752  0.40607158     0.37170
H1434       H  0.10127503  0.35547192  0.43155549     0.33650
H1435       H  0.13334922  0.42673611  0.07292068     0.25440
H1436       H  0.09442102  0.29649571  0.49324950     0.31380
H1437       H  0.13797943  0.29854540  0.38150623     0.37290
H1438       H  0.16098463  0.47686257  0.04150489     0.31750
H1439       H  0.21016927  0.47979323  0.44369729     0.30620
H1440       H  0.21810539  0.46430779  0.39262950     0.32300
H1441       H  0.17178724  0.34595160  0.34210532     0.31270
H1442       H  0.20332015  0.41256456  0.04327378     0.35270
H1443       H  0.24970929  0.35333821  0.00029621     0.28000
H1444       H  0.06453016  0.42328707  0.40471627     0.32240
H1445       H  0.11898988  0.34116708  0.35244003     0.35090
H1446       H  0.19717030  0.46921769  0.47363597     0.27700
H1447       H  0.24424163  0.32832105  0.97749015     0.40570
H1448       H  0.09986978  0.35129858  0.04532301     0.30620
H1449       H  0.11521635  0.40457902  0.05600788     0.38240
H1450       H  0.18766943  0.37187190  0.35526989     0.30090
H1451       H  0.09964358  0.30102209  0.45839040     0.30150
H1452       H  0.06439452  0.39080604  0.41287620     0.30420
Zr1453     Zr  0.29873281  0.27756593  0.37505392     2.17510
O1454       O  0.30410773  0.32458235  0.39759659    -0.51940
O1455       O  0.29534912  0.25349329  0.42304602    -0.75140
O1456       O  0.25676174  0.29747281  0.39550332    -0.81930
O1457       O  0.37934466  0.27375969  0.36329204    -0.83670
O1458       O  0.22315059  0.27859885  0.36617103    -0.79290
O1459       O  0.34419183  0.29191500  0.39078260    -0.90930
O1460       O  0.29639562  0.20571889  0.41835977    -0.76890
O1461       O  0.27115196  0.23660224  0.37028239    -0.86380
O1462       O  0.32953880  0.23920917  0.36891541    -0.86070
O1463       O  0.26975102  0.28615996  0.33186257    -0.72830
O1464       O  0.32402318  0.28915330  0.33044428    -0.84970
Zr1465     Zr  0.29974480  0.21619534  0.27561289     2.26420
Zr1466     Zr  0.24256744  0.24422485  0.32675379     2.06270
Zr1467     Zr  0.35456219  0.24992089  0.32365397     2.10050
Zr1468     Zr  0.30228232  0.19819818  0.36367180     1.78760
O1469       O  0.38599563  0.28527730  0.30507522    -0.93770
O1470       O  0.26554300  0.16685843  0.37799770    -0.41580
O1471       O  0.32844599  0.20735059  0.31853397    -0.78210
O1472       O  0.27362051  0.20477640  0.32025676    -0.96900
O1473       O  0.26836696  0.25449676  0.28182296    -0.90200
O1474       O  0.32633097  0.25764594  0.27980970    -0.93040
C1475       C  0.29437716  0.22856219  0.43418112     1.00710
C1476       C  0.36975388  0.28900323  0.38487108     1.13640
C1477       C  0.23168756  0.29526077  0.38807695     1.04420
O1478       O  0.20938239  0.21664204  0.35449559    -0.95200
O1479       O  0.22491642  0.20859186  0.28805428    -0.90940
O1480       O  0.25975994  0.18912037  0.26081070    -0.84090
C1481       C  0.23448109  0.19094899  0.26746897     1.11060
O1482       O  0.29636354  0.34457082  0.30576975    -0.97170
Zr1483     Zr  0.29521330  0.29593795  0.28689531     1.88940
O1484       O  0.29280162  0.24053324  0.22923103    -0.73820
O1485       O  0.20646651  0.26922367  0.30001550    -0.53080
O1486       O  0.25392900  0.32147206  0.27295301    -0.97760
O1487       O  0.33218601  0.32151865  0.26293465    -0.54980
O1488       O  0.28888612  0.28802552  0.23260616    -0.74340
C1489       C  0.28900981  0.26471890  0.21757886     0.98010
O1490       O  0.30692801  0.18002635  0.23601007    -0.63160
O1491       O  0.38701603  0.21463720  0.34160904    -0.57960
O1492       O  0.34662338  0.20080024  0.26571922    -0.94640
O1493       O  0.37962962  0.23024517  0.28182332    -0.93070
O1494       O  0.34242994  0.17770800  0.38752704    -0.93420
O1495       O  0.31000892  0.14986460  0.34583696    -0.92210
C1496       C  0.37173172  0.20815350  0.26801650     1.16850
H1497       H  0.34134717  0.23724991  0.38635939     0.32790
H1498       H  0.26394377  0.18727768  0.31765777     0.43650
H1499       H  0.33715821  0.26031711  0.26172922     0.37170
H1500       H  0.25846766  0.30262546  0.33551840     0.33650
H1501       H  0.27260581  0.15631574  0.39574436     0.25440
H1502       H  0.19000222  0.26589433  0.31236879     0.31380
H1503       H  0.25890866  0.33251674  0.25476470     0.37290
H1504       H  0.33525200  0.16413799  0.40249158     0.31750
H1505       H  0.40501784  0.22338376  0.33877774     0.30620
H1506       H  0.40424488  0.27659639  0.30737760     0.32300
H1507       H  0.33685137  0.31057993  0.24429156     0.31270
H1508       H  0.30676927  0.15053478  0.32358045     0.35270
H1509       H  0.29744781  0.16261978  0.24215171     0.28000
H1510       H  0.29696808  0.32347614  0.41863851     0.32240
H1511       H  0.29577281  0.35659294  0.28743047     0.35090
H1512       H  0.38448445  0.21420871  0.36397481     0.27700
H1513       H  0.29701396  0.18666879  0.21776995     0.40570
H1514       H  0.21409583  0.21952057  0.37623304     0.30620
H1515       H  0.25136907  0.17956997  0.38660698     0.38240
H1516       H  0.34790336  0.31864019  0.27664725     0.30090
H1517       H  0.21050084  0.28949191  0.30329772     0.30150
H1518       H  0.29124111  0.33707039  0.38663724     0.30420
Zr1519     Zr  0.28107091  0.21351792  0.12563092     2.17510
O1520       O  0.27557250  0.16605847  0.14543834    -0.51940
O1521       O  0.28297234  0.23888904  0.17331185    -0.75140
O1522       O  0.32054114  0.19383913  0.15127784    -0.81930
O1523       O  0.20212996  0.21257125  0.11010750    -0.83670
O1524       O  0.35522632  0.20991741  0.12222960    -0.79290
O1525       O  0.23653633  0.19822001  0.14077391    -0.90930
O1526       O  0.28402922  0.28662423  0.16950336    -0.76890
O1527       O  0.30907854  0.25401060  0.12313989    -0.86380
O1528       O  0.25070410  0.25216802  0.11968736    -0.86070
O1529       O  0.31066475  0.20347889  0.08331098    -0.72830
O1530       O  0.25660832  0.20240594  0.07999087    -0.84970
Zr1531     Zr  0.28307140  0.27523352  0.02830274     2.26420
Zr1532     Zr  0.33888147  0.24450819  0.08131660     2.06270
Zr1533     Zr  0.22619071  0.24165718  0.07389910     2.10050
Zr1534     Zr  0.27858080  0.29290815  0.11546585     1.78760
O1535       O  0.19694804  0.20946229  0.04571454    -0.93770
O1536       O  0.31461860  0.32517430  0.13036858    -0.41580
O1537       O  0.25296755  0.28400584  0.07004266    -0.78210
O1538       O  0.30886279  0.28479690  0.07394600    -0.96900
O1539       O  0.31380955  0.23638087  0.03482198    -0.90200
O1540       O  0.25537367  0.23444672  0.03036516    -0.93040
C1541       C  0.28480951  0.26382071  0.18477405     1.00710
C1542       C  0.21147216  0.19869159  0.13271239     1.13640
C1543       C  0.34575443  0.19453672  0.14455812     1.04420
O1544       O  0.37199304  0.27116431  0.11077434    -0.95200
O1545       O  0.35996675  0.27878436  0.04490068    -0.90940
O1546       O  0.32605451  0.29947224  0.01776809    -0.84090
C1547       C  0.35121728  0.29675697  0.02475204     1.11060
O1548       O  0.28391821  0.14658347  0.05302556    -0.97170
Zr1549     Zr  0.28603720  0.19564718  0.03668107     1.88940
O1550       O  0.28574530  0.25182844  0.47963551    -0.73820
O1551       O  0.37472750  0.21761101  0.05577173    -0.53080
O1552       O  0.32775013  0.17083998  0.02234603    -0.97760
O1553       O  0.24970963  0.16999036  0.51101071    -0.54980
O1554       O  0.29234259  0.20458405  0.48231518    -0.74340
C1555       C  0.29048317  0.22772796  0.46741911     0.98010
O1556       O  0.28615279  0.31119414  0.98895123    -0.63160
O1557       O  0.19139860  0.27153836  0.09763559    -0.57960
O1558       O  0.23617431  0.29572006  0.02199455    -0.94640
O1559       O  0.20090065  0.26912582  0.03801219    -0.93070
O1560       O  0.23844053  0.31349729  0.13963963    -0.93420
O1561       O  0.27134876  0.34062716  0.09651577    -0.92210
C1562       C  0.21023783  0.29074443  0.02482888     1.16850
H1563       H  0.23868708  0.25407036  0.13699097     0.32790
H1564       H  0.31915870  0.30197683  0.07245284     0.43650
H1565       H  0.24465533  0.23242613  0.01205048     0.37170
H1566       H  0.32136105  0.18670072  0.08723865     0.33650
H1567       H  0.30736530  0.33558956  0.14831991     0.25440
H1568       H  0.39121773  0.22147857  0.06797138     0.31380
H1569       H  0.32326972  0.16034067  0.50343950     0.37290
H1570       H  0.24554563  0.32842702  0.15337165     0.31750
H1571       H  0.17409246  0.26167507  0.09364234     0.30620
H1572       H  0.17824759  0.21545213  0.05119194     0.32300
H1573       H  0.24267715  0.18296952  0.49524863     0.31270
H1574       H  0.27719330  0.33972201  0.07493188     0.35270
H1575       H  0.29295436  0.32912105  0.99784050     0.28000
H1576       H  0.28018294  0.16705932  0.16739084     0.32240
H1577       H  0.28637814  0.13499638  0.03430181     0.35090
H1578       H  0.19423131  0.26975294  0.11986457     0.27700
H1579       H  0.29934400  0.30513617  0.97307615     0.40570
H1580       H  0.36556228  0.27001438  0.13209878     0.30620
H1581       H  0.32909335  0.31281849  0.13869906     0.38240
H1582       H  0.23496579  0.16909333  0.52628879     0.30090
H1583       H  0.37050623  0.19760335  0.05999110     0.30150
H1584       H  0.28994014  0.15418770  0.13587070     0.30420
C1585       C  0.31621493  0.44266183  0.46020353    -0.06380
C1586       C  0.32590961  0.42722577  0.48505075    -0.00460
C1587       C  0.30789686  0.41488292  0.50560311    -0.09030
C1588       C  0.28075397  0.41372772  0.49740996    -0.06410
C1589       C  0.27131304  0.42465310  0.46942402    -0.00470
C1590       C  0.28885902  0.44159814  0.45172495    -0.08940
C1591       C  0.27963657  0.45773833  0.42379092     0.61440
H1592       H  0.33073113  0.45280599  0.44542348     0.12130
H1593       H  0.26708386  0.40279640  0.01234057     0.12150
C1594       C  0.31670943  0.40109734  0.53514497     0.61670
F1595       F  0.29981318  0.47509922  0.41277656    -0.23490
F1596       F  0.25773539  0.47477898  0.43132566    -0.20820
F1597       F  0.27260412  0.43915798  0.40066400    -0.20500
F1598       F  0.34302978  0.40789878  0.54312738    -0.20550
F1599       F  0.29990753  0.41016733  0.55860081    -0.20870
F1600       F  0.31453043  0.37217722  0.03201223    -0.23550
C1601       C  0.27114597  0.04810870  0.24239214    -0.06380
C1602       C  0.26330927  0.04581191  0.21181069    -0.00460
C1603       C  0.28244957  0.04017834  0.18883459    -0.09030
C1604       C  0.30977070  0.04242151  0.19660113    -0.06410
C1605       C  0.31728850  0.05149357  0.22586073    -0.00470
C1606       C  0.29845033  0.05127817  0.24991365    -0.08940
C1607       C  0.30683653  0.05617006  0.28267501     0.61440
H1608       H  0.25570855  0.05139186  0.25970766     0.12130
H1609       H  0.32500789  0.04045230  0.17909997     0.12150
C1610       C  0.27390738  0.03455884  0.15613766     0.61670
F1611       F  0.28596229  0.05010707  0.30265089    -0.23490
F1612       F  0.31393874  0.08400857  0.28695410    -0.20820
F1613       F  0.32876827  0.03894360  0.28960713    -0.20500
F1614       F  0.26089217  0.05807399  0.14444228    -0.20550
F1615       F  0.25635913  0.01191851  0.15522027    -0.20870
F1616       F  0.29594454  0.02817877  0.13767577    -0.23550
C1617       C  0.00741172  0.37684414  0.43252051    -0.06380
C1618       C  0.00752257  0.40550522  0.42410847    -0.00460
C1619       C  0.02150570  0.42504940  0.44206227    -0.09030
C1620       C  0.03826264  0.41430768  0.46516264    -0.06410
C1621       C  0.04285643  0.38498465  0.46922280    -0.00470
C1622       C  0.02480687  0.36607999  0.45509206    -0.08940
C1623       C  0.02463047  0.33487398  0.46240912     0.61440
H1624       H  0.99524117  0.36250627  0.41952061     0.12130
H1625       H  0.05014032  0.42872930  0.47788869     0.12150
C1626       C  0.02082237  0.45640143  0.43452717     0.61670
F1627       F  0.00084640  0.32233523  0.45269702    -0.23490
F1628       F  0.02701413  0.33038847  0.99297363    -0.20820
F1629       F  0.04619311  0.32134186  0.44814526    -0.20500
F1630       F  0.99474998  0.46680887  0.43832503    -0.20550
F1631       F  0.02872045  0.46058405  0.40466305    -0.20870
F1632       F  0.03797521  0.47192486  0.45283268    -0.23550
C1633       C  0.05263275  0.15238053  0.24462775    -0.06380
C1634       C  0.04564396  0.14799994  0.21411473    -0.00460
C1635       C  0.02321143  0.13103587  0.20718461    -0.09030
C1636       C  0.01394900  0.11238077  0.22937213    -0.06410
C1637       C  0.02513997  0.11230044  0.25891011    -0.00470
C1638       C  0.04510303  0.13277911  0.26676133    -0.08940
C1639       C  0.06301364  0.13188781  0.29509589     0.61440
H1640       H  0.06843864  0.16740355  0.25002042     0.12130
H1641       H  0.99838016  0.09740383  0.22334954     0.12150
C1642       C  0.00975439  0.13289550  0.17620172     0.61670
F1643       F  0.08868584  0.12397709  0.28609778    -0.23490
F1644       F  0.05472105  0.11302684  0.31690185    -0.20820
F1645       F  0.06500793  0.15839109  0.30836512    -0.20500
F1646       F  0.02754225  0.12452658  0.15343380    -0.20550
F1647       F  0.00188652  0.16059043  0.17116178    -0.20870
F1648       F  0.98689124  0.11616263  0.17445285    -0.23550
C1649       C  0.99226332  0.23514314  0.32816646    -0.06380
C1650       C  0.96931918  0.22684555  0.31122796    -0.00460
C1651       C  0.96198676  0.24174295  0.28448089    -0.09030
C1652       C  0.97489764  0.26747032  0.27958005    -0.06410
C1653       C  0.98977379  0.27918731  0.30361541    -0.00470
C1654       C  0.00393648  0.26112522  0.32295645    -0.08940
C1655       C  0.02793745  0.27048974  0.34172884     0.61440
H1656       H  0.00022148  0.22220483  0.34643992     0.12130
H1657       H  0.96742443  0.28148695  0.26202284     0.12150
C1658       C  0.94003353  0.23193852  0.26256951     0.61670
F1659       F  0.04862876  0.25067985  0.33891380    -0.23490
F1660       F  0.02049189  0.27277332  0.37204312    -0.20820
F1661       F  0.03763991  0.29622618  0.33197205    -0.20500
F1662       F  0.91524655  0.23217913  0.27712938    -0.20550
F1663       F  0.94556042  0.20490053  0.25228180    -0.20870
F1664       F  0.93802835  0.24925259  0.23738887    -0.23550
C1665       C  0.54519579  0.12900490  0.13802143    -0.06380
C1666       C  0.56365929  0.10698873  0.14446037    -0.00460
C1667       C  0.57036307  0.10180388  0.17556693    -0.09030
C1668       C  0.55616013  0.11707189  0.19837897    -0.06410
C1669       C  0.53550687  0.13664978  0.19145971    -0.00470
C1670       C  0.53241814  0.14512654  0.16079683    -0.08940
C1671       C  0.51672506  0.17092496  0.15006769     0.61440
H1672       H  0.54048787  0.13403301  0.11461495     0.12130
H1673       H  0.55915812  0.11189230  0.22210825     0.12150
C1674       C  0.59084098  0.07942765  0.18541580     0.61670
F1675       F  0.53345424  0.18686205  0.13180668    -0.23490
F1676       F  0.50797444  0.18835045  0.17345919    -0.20820
F1677       F  0.49476802  0.16250478  0.13275460    -0.20500
F1678       F  0.61613244  0.08558608  0.17409879    -0.20550
F1679       F  0.58292885  0.05305776  0.17510311    -0.20870
F1680       F  0.59331195  0.07813942  0.21679617    -0.23550
C1681       C  0.53177333  0.32963802  0.99927897    -0.06380
C1682       C  0.54001231  0.33497397  0.46943751    -0.00460
C1683       C  0.56319214  0.35180751  0.46558980    -0.09030
C1684       C  0.57272561  0.36827199  0.99013190    -0.06410
C1685       C  0.55955635  0.36826159  0.01866234    -0.00470
C1686       C  0.53817859  0.34859475  0.02311745    -0.08940
C1687       C  0.51773808  0.34987146  0.04904386     0.61440
H1688       H  0.51589968  0.31432937  0.00280388     0.12130
H1689       H  0.58941308  0.38248675  0.98612188     0.12150
C1690       C  0.57700127  0.35458827  0.43508214     0.61670
F1691       F  0.49347632  0.35913413  0.03709366    -0.23490
F1692       F  0.52415844  0.36809443  0.07252645    -0.20820
F1693       F  0.51398848  0.32320387  0.06091629    -0.20500
F1694       F  0.57377097  0.38187385  0.42487178    -0.20550
F1695       F  0.56641458  0.33614749  0.41357779    -0.20870
F1696       F  0.60442028  0.34872878  0.43820220    -0.23550
C1697       C  0.59364301  0.25606775  0.06823856    -0.06380
C1698       C  0.62053837  0.26127606  0.07771362    -0.00460
C1699       C  0.64213086  0.25154528  0.05925256    -0.09030
C1700       C  0.63572232  0.24302324  0.02965788    -0.06410
C1701       C  0.61221948  0.22672985  0.02816304    -0.00470
C1702       C  0.58921377  0.23829969  0.04292310    -0.08940
C1703       C  0.56085094  0.23025702  0.03384270     0.61440
H1704       H  0.57654797  0.26483400  0.08072668     0.12130
H1705       H  0.65245254  0.23742056  0.01464596     0.12150
C1706       C  0.66886571  0.24220953  0.07317317     0.61670
F1707       F  0.54624829  0.25437300  0.02658827    -0.23490
F1708       F  0.54826799  0.21688559  0.05781644    -0.20820
F1709       F  0.56112440  0.21229143  0.00874311    -0.20500
F1710       F  0.66638972  0.23802763  0.10422194    -0.20550
F1711       F  0.68838468  0.26191540  0.06716440    -0.20870
F1712       F  0.67722017  0.21674148  0.06143967    -0.23550
C1713       C  0.04963850  0.53156458  0.01745907    -0.06380
C1714       C  0.02268311  0.52164938  0.01539669    -0.00460
C1715       C  0.01931867  0.49181451  0.51661238    -0.09030
C1716       C  0.04246857  0.47340693  0.51683279    -0.06410
C1717       C  0.06931631  0.48322876  0.51316519    -0.00470
C1718       C  0.07282740  0.51296852  0.01643957    -0.08940
C1719       C  0.10128593  0.52469159  0.01844349     0.61440
H1720       H  0.05250294  0.55422303  0.01804069     0.12130
H1721       H  0.03948905  0.45095178  0.51870657     0.12150
C1722       C  0.99097056  0.47963762  0.51748391     0.61670
F1723       F  0.10109124  0.55370839  0.02280954    -0.23490
F1724       F  0.11562187  0.51840518  0.49187750    -0.20820
F1725       F  0.11466897  0.51258012  0.04282929    -0.20500
F1726       F  0.97659894  0.48756842  0.49186048    -0.20550
F1727       F  0.97745717  0.49008145  0.04377089    -0.20870
F1728       F  0.99143454  0.45040069  0.51852470    -0.23550
C1729       C  0.91785994  0.53386246  0.35331349    -0.06380
C1730       C  0.91443246  0.52006295  0.38145665    -0.00460
C1731       C  0.89082517  0.50270548  0.38506979    -0.09030
C1732       C  0.87212989  0.50136442  0.36072194    -0.06410
C1733       C  0.88235943  0.50504178  0.33148046    -0.00470
C1734       C  0.90121079  0.52702357  0.32826754    -0.08940
C1735       C  0.90661610  0.53988922  0.29768548     0.61440
H1736       H  0.93401553  0.54898197  0.35033784     0.12130
H1737       H  0.85398846  0.48873913  0.36290045     0.12150
C1738       C  0.88606153  0.48366110  0.41220270     0.61670
F1739       F  0.90332724  0.56890349  0.29977151    -0.23490
F1740       F  0.88886761  0.52954600  0.27588411    -0.20820
F1741       F  0.93292945  0.53365867  0.28870813    -0.20500
F1742       F  0.87668586  0.49930499  0.43659179    -0.20550
F1743       F  0.90981131  0.46975606  0.41999124    -0.20870
F1744       F  0.86689254  0.46324779  0.40586034    -0.23550
C1745       C  0.51228358  0.49822686  0.40396783    -0.06380
C1746       C  0.52093792  0.47005366  0.39965982    -0.00460
C1747       C  0.54854745  0.46569142  0.39054099    -0.09030
C1748       C  0.56681884  0.48895730  0.38972515    -0.06410
C1749       C  0.55858152  0.51683810  0.39678049    -0.00470
C1750       C  0.53028376  0.52150124  0.40194570    -0.08940
C1751       C  0.51882988  0.55104437  0.40637865     0.61440
H1752       H  0.49131786  0.50200449  0.41042286     0.12130
H1753       H  0.58810891  0.48497709  0.38492912     0.12150
C1754       C  0.55996297  0.43717065  0.38097482     0.61670
F1755       F  0.49161544  0.55218274  0.39854404    -0.23490
F1756       F  0.53243568  0.56999118  0.38819433    -0.20820
F1757       F  0.52133127  0.55905879  0.43652663    -0.20500
F1758       F  0.56865501  0.43860865  0.35105364    -0.20550
F1759       F  0.54124904  0.41566697  0.38287913    -0.20870
F1760       F  0.58200062  0.43063985  0.39916961    -0.23550
C1761       C  0.63574262  0.53145736  0.06233617    -0.06380
C1762       C  0.64201174  0.51931043  0.03369512    -0.00460
C1763       C  0.66595718  0.50201321  0.03131271    -0.09030
C1764       C  0.68416637  0.50260301  0.05588149    -0.06410
C1765       C  0.67248352  0.50434968  0.08465185    -0.00470
C1766       C  0.65065957  0.52355434  0.08826058    -0.08940
C1767       C  0.64140983  0.53333838  0.11924477     0.61440
H1768       H  0.61872636  0.54597882  0.06483182     0.12130
H1769       H  0.70305561  0.49071229  0.05359759     0.12150
C1770       C  0.67193715  0.47962537  0.00694991     0.61670
F1771       F  0.64294488  0.56247012  0.12114484    -0.23490
F1772       F  0.65727516  0.52169932  0.14203636    -0.20820
F1773       F  0.61483706  0.52538079  0.12347994    -0.20500
F1774       F  0.69464243  0.48696192  0.99058133    -0.20550
F1775       F  0.64916611  0.47460859  0.48646368    -0.20870
F1776       F  0.67760380  0.45422209  0.02094091    -0.23550
C1777       C  0.77748465  0.56114860  0.40911261    -0.06380
C1778       C  0.76286790  0.54687045  0.43121315    -0.00460
C1779       C  0.77668953  0.53504772  0.45602447    -0.09030
C1780       C  0.80136746  0.54674009  0.46405168    -0.06410
C1781       C  0.81322191  0.56760724  0.44595968    -0.00470
C1782       C  0.80250025  0.57299773  0.41639268    -0.08940
C1783       C  0.81562845  0.59009004  0.39137365     0.61440
H1784       H  0.76724664  0.56733787  0.38829967     0.12130
H1785       H  0.81229335  0.53562650  0.98042778     0.12150
C1786       C  0.76584498  0.51112319  0.47491361     0.61670
F1787       F  0.82242202  0.57214692  0.36745092    -0.23490
F1788       F  0.83857645  0.60405739  0.40035462    -0.20820
F1789       F  0.79736749  0.61001716  0.38080066    -0.20500
F1790       F  0.74164404  0.50099845  0.46353384    -0.20550
F1791       F  0.76217030  0.52005461  0.50472974    -0.20870
F1792       F  0.78618170  0.48601173  0.96889862    -0.23550
C1793       C  0.00908762  0.00191600  0.16524355    -0.06380
C1794       C  0.01550285  0.97320234  0.16090362    -0.00460
C1795       C  0.04197378  0.96668649  0.14974086    -0.09030
C1796       C  0.06250615  0.98795033  0.14940872    -0.06410
C1797       C  0.05662096  0.01649933  0.15662179    -0.00470
C1798       C  0.02868964  0.02356917  0.16165466    -0.08940
C1799       C  0.01923540  0.05406759  0.16131458     0.61440
H1800       H  0.98846112  0.00737227  0.17169563     0.12130
H1801       H  0.08324353  0.98230512  0.14367443     0.12150
C1802       C  0.04751635  0.93785700  0.13604605     0.61670
F1803       F  0.99118926  0.05634240  0.16109439    -0.23490
F1804       F  0.02899434  0.06697180  0.13542446    -0.20820
F1805       F  0.02868304  0.06811542  0.18664356    -0.20500
F1806       F  0.03046250  0.93367671  0.11140209    -0.20550
F1807       F  0.04243627  0.91738719  0.15729223    -0.20870
F1808       F  0.07404318  0.93507696  0.12599419    -0.23550
C1809       C  0.96900185  0.96179943  0.32070384    -0.06380
C1810       C  0.95247637  0.93891553  0.32608530    -0.00460
C1811       C  0.92908691  0.94484568  0.34369431    -0.09030
C1812       C  0.91705256  0.97179564  0.34070384    -0.06410
C1813       C  0.92855259  0.99128385  0.32031388    -0.00470
C1814       C  0.95531403  0.98515379  0.30842581    -0.08940
C1815       C  0.96592597  0.99408934  0.27744102     0.61440
H1816       H  0.98965348  0.95726763  0.31337574     0.12130
H1817       H  0.89771286  0.97627016  0.35157474     0.12150
C1818       C  0.91377593  0.92160919  0.35912592     0.61670
F1819       F  0.97952252  0.97222079  0.26279947    -0.23490
F1820       F  0.98420743  0.01551694  0.28092293    -0.20820
F1821       F  0.94531489  0.00141921  0.25798292    -0.20500
F1822       F  0.92809705  0.89631962  0.35759862    -0.20550
F1823       F  0.88889039  0.91801844  0.34503224    -0.20870
F1824       F  0.90962309  0.92875071  0.38939356    -0.23550
C1825       C  0.56357582  0.99923534  0.26487067    -0.06380
C1826       C  0.55693373  0.97085905  0.25879784    -0.00460
C1827       C  0.52890421  0.96371222  0.25805459    -0.09030
C1828       C  0.50873125  0.98529462  0.26012826    -0.06410
C1829       C  0.51544251  0.01393617  0.26341126    -0.00470
C1830       C  0.54330282  0.02079692  0.26732428    -0.08940
C1831       C  0.55141047  0.05111533  0.27350974     0.61440
H1832       H  0.58485576  0.00471095  0.26590635     0.12130
H1833       H  0.48753180  0.98007063  0.25710196     0.12150
C1834       C  0.52032278  0.93325181  0.25437006     0.61670
F1835       F  0.57907656  0.05359151  0.27825086    -0.23490
F1836       F  0.53811273  0.06105314  0.29927986    -0.20820
F1837       F  0.54427730  0.06775486  0.24907365    -0.20500
F1838       F  0.53367086  0.91679416  0.27563786    -0.20550
F1839       F  0.52673904  0.92373816  0.22542514    -0.20870
F1840       F  0.49266564  0.93009117  0.25860190    -0.23550
C1841       C  0.63796408  0.96801069  0.05098634    -0.06380
C1842       C  0.66554603  0.97638017  0.05297507    -0.00460
C1843       C  0.68235824  0.96068272  0.07238042    -0.09030
C1844       C  0.67013292  0.94673289  0.09679364    -0.06410
C1845       C  0.64185950  0.94822232  0.10118086    -0.00470
C1846       C  0.62525597  0.95652369  0.07694881    -0.08940
C1847       C  0.59476192  0.95489631  0.08009962     0.61440
H1848       H  0.62539834  0.97762619  0.03363794     0.12130
H1849       H  0.68265053  0.93634709  0.11352591     0.12150
C1850       C  0.71287479  0.96237952  0.07060314     0.61670
F1851       F  0.58186098  0.96554874  0.05516582    -0.23490
F1852       F  0.58580677  0.97006487  0.10529409    -0.20820
F1853       F  0.58738496  0.92707257  0.08314667    -0.20500
F1854       F  0.72255392  0.97810114  0.09492778    -0.20550
F1855       F  0.72105049  0.97485351  0.04375740    -0.20870
F1856       F  0.72396135  0.93544566  0.07164241    -0.23550
C1857       C  0.77168079  0.94969870  0.19067080    -0.06380
C1858       C  0.76005793  0.94296618  0.21877750    -0.00460
C1859       C  0.77635424  0.93817638  0.24449613    -0.09030
C1860       C  0.80378463  0.93343996  0.23971471    -0.06410
C1861       C  0.81448270  0.93426113  0.21030506    -0.00470
C1862       C  0.79929519  0.94488226  0.18575946    -0.08940
C1863       C  0.81158705  0.94880216  0.15444194     0.61440
H1864       H  0.75855976  0.95427550  0.17151439     0.12130
H1865       H  0.81634741  0.92666246  0.25861273     0.12150
C1866       C  0.76548892  0.93586430  0.27660634     0.61670
F1867       F  0.79333690  0.96123197  0.13451996    -0.23490
F1868       F  0.81932863  0.92292093  0.14239466    -0.20820
F1869       F  0.83409631  0.96595555  0.15664653    -0.20500
F1870       F  0.77097561  0.90916118  0.28773229    -0.20550
F1871       F  0.73783204  0.94097848  0.27810890    -0.20870
F1872       F  0.77834307  0.95552550  0.29499881    -0.23550
C1873       C  0.01416555  0.50572596  0.28944453    -0.06380
C1874       C  0.01861560  0.47678095  0.28234515    -0.00460
C1875       C  0.04470410  0.46928839  0.27045737    -0.09030
C1876       C  0.06513674  0.49040062  0.26736741    -0.06090
C1877       C  0.06079717  0.51920150  0.27502629    -0.00470
C1878       C  0.03452281  0.52682443  0.28602113    -0.08940
C1879       C  0.02848332  0.55705801  0.29579933     0.61440
H1880       H  0.99451760  0.51170992  0.29862306     0.12130
H1881       H  0.08528056  0.48431305  0.25977691     0.12150
C1882       C  0.05152346  0.43881582  0.26234350     0.61670
F1883       F  0.00207075  0.56047247  0.30606844    -0.23490
F1884       F  0.03217407  0.57487236  0.27138046    -0.20820
F1885       F  0.04578565  0.56484574  0.31916472    -0.20500
F1886       F  0.03543632  0.43007364  0.23828922    -0.20550
F1887       F  0.04702552  0.42173681  0.28722386    -0.20870
F1888       F  0.07838922  0.43542914  0.25367630    -0.23550
C1889       C  0.04763450  0.60697315  0.45116255    -0.06380
C1890       C  0.02955961  0.62706894  0.43904937    -0.00460
C1891       C  0.02813991  0.63045994  0.40703353    -0.09030
C1892       C  0.04101293  0.61024559  0.38862676    -0.06410
C1893       C  0.06038107  0.59149720  0.40049216    -0.00470
C1894       C  0.06428093  0.59034342  0.43222915    -0.08940
C1895       C  0.08568746  0.57181665  0.44671313     0.61440
H1896       H  0.04872659  0.60421098  0.47565599     0.12130
H1897       H  0.03908514  0.61200542  0.36413648     0.12150
C1898       C  0.01591518  0.65560632  0.39049485     0.61670
F1899       F  0.07305735  0.55346294  0.46592312    -0.23490
F1900       F  0.10365638  0.58836293  0.46308587    -0.20820
F1901       F  0.10009537  0.55574833  0.42579774    -0.20500
F1902       F  0.00479508  0.67578450  0.40962686    -0.20550
F1903       F  0.99627842  0.64641178  0.37029106    -0.20870
F1904       F  0.03610435  0.66859599  0.37396474    -0.23550
C1905       C  0.14998496  0.46326612  0.34201533    -0.06380
C1906       C  0.14746074  0.47273320  0.37239954    -0.00460
C1907       C  0.16326130  0.49587920  0.38270152    -0.09030
C1908       C  0.18243059  0.50695961  0.36279354    -0.06410
C1909       C  0.18338084  0.49890474  0.33200634    -0.00470
C1910       C  0.16705161  0.47664140  0.32131084    -0.08940
C1911       C  0.16624208  0.46699860  0.28830096     0.61440
H1912       H  0.13834779  0.44515954  0.33435779     0.12130
H1913       H  0.19396511  0.52521475  0.37025651     0.12150
C1914       C  0.15742223  0.51338759  0.41114902     0.61670
F1915       F  0.17115742  0.43818640  0.28667966    -0.23490
F1916       F  0.18542898  0.48024441  0.27056517    -0.20820
F1917       F  0.14076730  0.47260353  0.27641436    -0.20500
F1918       F  0.18108559  0.51877428  0.42684060    -0.20550
F1919       F  0.13899372  0.50107740  0.43038003    -0.20870
F1920       F  0.14702659  0.53923661  0.40245183    -0.23550
C1921       C  0.04515081  0.02313461  0.37638178    -0.06380
C1922       C  0.01815855  0.01551952  0.36992462    -0.00460
C1923       C  0.01275258  0.98607631  0.37093220    -0.09030
C1924       C  0.03445580  0.96598533  0.36687664    -0.06410
C1925       C  0.06201716  0.97392312  0.36877482    -0.00470
C1926       C  0.06640538  0.00243375  0.37911989    -0.08940
C1927       C  0.09206280  0.01168135  0.39515907     0.61440
H1928       H  0.04968697  0.04529345  0.37990453     0.12130
H1929       H  0.02989587  0.94375964  0.36411826     0.12150
C1930       C  0.98723616  0.97667081  0.38702065     0.61670
F1931       F  0.10288936  0.03489257  0.38088562    -0.23490
F1932       F  0.11141625  0.99040703  0.39652229    -0.20820
F1933       F  0.08554417  0.01952724  0.42471843    -0.20500
F1934       F  0.96468028  0.99140785  0.37702931    -0.20550
F1935       F  0.99016993  0.98203913  0.41786387    -0.20870
F1936       F  0.98300412  0.94798919  0.38313408    -0.23550
C1937       C  0.13663170  0.01003787  0.33522332    -0.06380
C1938       C  0.16503481  0.00915987  0.33785110    -0.00460
C1939       C  0.17970486  0.03360531  0.33082868    -0.09030
C1940       C  0.16605721  0.05554815  0.31540011    -0.06410
C1941       C  0.13889504  0.05252053  0.30605080    -0.00470
C1942       C  0.12319590  0.03107925  0.31841918    -0.08940
C1943       C  0.09328998  0.02902763  0.30954383     0.61440
H1944       H  0.12577724  0.99216079  0.34276040     0.12130
H1945       H  0.17777259  0.07230822  0.30564883     0.12150
C1946       C  0.20988624  0.03515332  0.33717078     0.61670
F1947       F  0.08112350  0.00588848  0.32136116    -0.23490
F1948       F  0.09009081  0.02648077  0.27841684    -0.20820
F1949       F  0.07957317  0.05293944  0.31968850    -0.20500
F1950       F  0.22369930  0.01474504  0.32038156    -0.20550
F1951       F  0.21444012  0.03057070  0.36783091    -0.20870
F1952       F  0.22023955  0.06134452  0.32986452    -0.23550
C1953       C  0.05320084  0.88554741  0.25324503    -0.06380
C1954       C  0.07148021  0.89411801  0.23112905    -0.00460
C1955       C  0.06974486  0.88260845  0.20118460    -0.09030
C1956       C  0.04728336  0.86573307  0.19362750    -0.06410
C1957       C  0.02851884  0.85802282  0.21598751    -0.00470
C1958       C  0.03270713  0.86638695  0.24683186    -0.08940
C1959       C  0.01583717  0.85534925  0.27330137     0.61440
H1960       H  0.05591571  0.89305060  0.27649136     0.12130
H1961       H  0.04432132  0.85845631  0.17040265     0.12150
C1962       C  0.09205345  0.88726741  0.17786311     0.61670
F1963       F  0.02743518  0.86086093  0.30136174    -0.23490
F1964       F  0.01277061  0.82641318  0.27046297    -0.20820
F1965       F  0.99087796  0.86840801  0.27385596    -0.20500
F1966       F  0.11475024  0.87128786  0.18502257    -0.20550
F1967       F  0.09904623  0.91551670  0.17761198    -0.20870
F1968       F  0.08394368  0.87940321  0.14881736    -0.23550
C1969       C  0.09338171  0.73792511  0.31923197    -0.06380
C1970       C  0.11755313  0.72594714  0.33044127    -0.00460
C1971       C  0.13114449  0.73858682  0.35553802    -0.09030
C1972       C  0.12150648  0.76474174  0.36562863    -0.06410
C1973       C  0.10658835  0.78006922  0.34457912    -0.00470
C1974       C  0.08686896  0.76550829  0.32797880    -0.08940
C1975       C  0.05988216  0.77872093  0.32026683     0.61440
H1976       H  0.08024683  0.72624325  0.30390823     0.12130
H1977       H  0.13253504  0.77635965  0.38298678     0.12150
C1978       C  0.15708253  0.72681553  0.36924473     0.61670
F1979       F  0.03929998  0.76173887  0.33093245    -0.23490
F1980       F  0.05742633  0.78139480  0.28906803    -0.20820
F1981       F  0.05715741  0.80510270  0.33390134    -0.20500
F1982       F  0.17829058  0.73012204  0.34893081    -0.20550
F1983       F  0.15465208  0.69865755  0.37630422    -0.20870
F1984       F  0.16314725  0.74092934  0.39586156    -0.23550
C1985       C  0.51232011  0.87933197  0.16320526    -0.06380
C1986       C  0.52484511  0.88036623  0.13430782    -0.00460
C1987       C  0.54729502  0.86190722  0.12810345    -0.09030
C1988       C  0.55546608  0.84297563  0.15068482    -0.06410
C1989       C  0.54658101  0.84644145  0.18062743    -0.00470
C1990       C  0.52279855  0.86220445  0.18642833    -0.08940
C1991       C  0.50821604  0.85944405  0.21667626     0.61440
H1992       H  0.49475225  0.89249677  0.16794284     0.12130
H1993       H  0.57242897  0.82885183  0.14612598     0.12150
C1994       C  0.56710275  0.86464853  0.10167206     0.61670
F1995       F  0.48482147  0.87585145  0.21778936    -0.23490
F1996       F  0.52478534  0.86742794  0.24057785    -0.20820
F1997       F  0.50104112  0.83151941  0.22056447    -0.20500
F1998       F  0.55816272  0.88161310  0.07836213    -0.20550
F1999       F  0.57352330  0.83832019  0.08955728    -0.20870
F2000       F  0.59065111  0.87611333  0.11306384    -0.23550
C2001       C  0.43797337  0.01032840  0.06995722    -0.06380
C2002       C  0.41114582  0.00032558  0.07251293    -0.00460
C2003       C  0.39479223  0.01021001  0.09641888    -0.09030
C2004       C  0.40807964  0.02034047  0.12210761    -0.06410
C2005       C  0.43573947  0.02705283  0.12200885    -0.00470
C2006       C  0.45058631  0.02430395  0.09476581    -0.08940
C2007       C  0.47999206  0.03339055  0.09337148     0.61440
H2008       H  0.45001518  0.00345986  0.05059198     0.12130
H2009       H  0.39695084  0.02135959  0.14293914     0.12150
C2010       C  0.36528673  0.00157183  0.09919134     0.61670
F2011       F  0.49220023  0.02399047  0.06721650    -0.23490
F2012       F  0.49476987  0.02244307  0.11739659    -0.20820
F2013       F  0.48130086  0.06257055  0.09422411    -0.20500
F2014       F  0.36341793  0.97787421  0.11729170    -0.20550
F2015       F  0.35426254  0.99564578  0.07086359    -0.20870
F2016       F  0.35011994  0.02316517  0.11221763    -0.23550
C2017       C  0.56518982  0.99007445  0.00455481    -0.06380
C2018       C  0.55880503  0.01822662  0.01265411    -0.00460
C2019       C  0.53090174  0.02565453  0.01461198    -0.09030
C2020       C  0.51092499  0.00401625  0.01338834    -0.06410
C2021       C  0.51785838  0.97506881  0.01186505    -0.00470
C2022       C  0.54535442  0.96821350  0.00484633    -0.08940
C2023       C  0.55390772  0.93776409  0.49925307     0.61440
H2024       H  0.58621841  0.98482067  0.50053524     0.12130
H2025       H  0.48961809  0.00948454  0.01526667     0.12150
C2026       C  0.52248647  0.05637957  0.01853286     0.61670
F2027       F  0.58151827  0.93532272  0.49381286    -0.23490
F2028       F  0.54037174  0.92718471  0.47408018    -0.20820
F2029       F  0.54788529  0.92162957  0.02445433    -0.20500
F2030       F  0.53280660  0.07196379  0.99476366    -0.20550
F2031       F  0.53252079  0.06690946  0.04577282    -0.20870
F2032       F  0.49453762  0.05975442  0.01858158    -0.23550
C2033       C  0.50895668  0.48364672  0.13110099    -0.06380
C2034       C  0.51600134  0.51211132  0.13681154    -0.00460
C2035       C  0.54302585  0.51722355  0.14676764    -0.09030
C2036       C  0.56248094  0.49452767  0.14711736    -0.06410
C2037       C  0.55602056  0.46667662  0.13796882    -0.00470
C2038       C  0.52833943  0.46106058  0.13150940    -0.08940
C2039       C  0.51957733  0.43106747  0.12458246     0.61440
H2040       H  0.48812518  0.47931512  0.12500644     0.12130
H2041       H  0.58325942  0.49858331  0.15351286     0.12150
C2042       C  0.55136797  0.54679833  0.15607778     0.61670
F2043       F  0.49172729  0.42908786  0.12139477    -0.23490
F2044       F  0.52746098  0.41362098  0.14815730    -0.20820
F2045       F  0.53163878  0.42163630  0.09790710    -0.20500
F2046       F  0.53514926  0.55618504  0.17989082    -0.20550
F2047       F  0.54837125  0.56487720  0.13169558    -0.20870
F2048       F  0.57809580  0.54767714  0.16571804    -0.23550
C2049       C  0.51334644  0.61194122  0.49335208    -0.06380
C2050       C  0.52554825  0.60978402  0.02247649    -0.00460
C2051       C  0.54802367  0.62684963  0.03052316    -0.09030
C2052       C  0.55778705  0.64562754  0.00857943    -0.06410
C2053       C  0.54826729  0.64397692  0.47824380    -0.00470
C2054       C  0.52418969  0.62963394  0.47133174    -0.08940
C2055       C  0.51032868  0.63322875  0.44069496     0.61440
H2056       H  0.49660665  0.59854987  0.48707837     0.12130
H2057       H  0.57510766  0.65867647  0.01379070     0.12150
C2058       C  0.56416774  0.62240799  0.05994670     0.61670
F2059       F  0.48549195  0.61977115  0.43974516    -0.23490
F2060       F  0.52626869  0.62235979  0.41743259    -0.20820
F2061       F  0.50588942  0.66170904  0.43565365    -0.20500
F2062       F  0.57377062  0.59490369  0.06100181    -0.20550
F2063       F  0.54860384  0.62730486  0.08557106    -0.20870
F2064       F  0.58623353  0.64023288  0.06169430    -0.23550
C2065       C  0.46099223  0.49393105  0.06888029    -0.06380
C2066       C  0.43439159  0.48880231  0.07892713    -0.00460
C2067       C  0.42739737  0.46062386  0.08528833    -0.09030
C2068       C  0.44551357  0.43900938  0.07499576    -0.06410
C2069       C  0.46976416  0.44589040  0.05943813    -0.00470
C2070       C  0.48013308  0.47280551  0.06318842    -0.08940
C2071       C  0.50746816  0.48015169  0.54940195     0.61440
H2072       H  0.46623411  0.51438688  0.06206270     0.12130
H2073       H  0.43883842  0.41729596  0.07438649     0.12150
C2074       C  0.40071620  0.45358895  0.10048138     0.61670
F2075       F  0.51990017  0.50137853  0.56587033    -0.23490
F2076       F  0.50393555  0.48908389  0.51974626    -0.20820
F2077       F  0.52463597  0.45684166  0.54916317    -0.20500
F2078       F  0.37909009  0.46426460  0.08397267    -0.20550
F2079       F  0.40019081  0.46548213  0.12937244    -0.20870
F2080       F  0.39744921  0.42468807  0.10312175    -0.23550
C2081       C  0.48965235  0.72904449  0.07028717    -0.06380
C2082       C  0.46206884  0.72130127  0.07041128    -0.00460
C2083       C  0.44479940  0.73097571  0.04661841    -0.09030
C2084       C  0.45694251  0.74544670  0.02269532    -0.06410
C2085       C  0.47875033  0.76218330  0.03133776    -0.00470
C2086       C  0.49853160  0.74921257  0.04957499    -0.08940
C2087       C  0.52795026  0.75740775  0.04841551     0.61440
H2088       H  0.50393956  0.71994545  0.08627039     0.12130
H2089       H  0.44444038  0.75262168  0.00392928     0.12150
C2090       C  0.41406946  0.72971224  0.04825053     0.61670
F2091       F  0.54349472  0.73384501  0.04098843    -0.23490
F2092       F  0.53603091  0.76763024  0.07657062    -0.20820
F2093       F  0.53226892  0.77790160  0.02667456    -0.20500
F2094       F  0.40475691  0.73601886  0.07736593    -0.20550
F2095       F  0.40574222  0.70345521  0.03869216    -0.20870
F2096       F  0.40206444  0.74918302  0.02998609    -0.23550
Zr2097     Zr  0.45884094  0.56015232  0.56280019     2.17510
O2098       O  0.46840058  0.53426722  0.51495005    -0.51940
O2099       O  0.48894643  0.53490959  0.59913435    -0.75140
O2100       O  0.50060615  0.56853859  0.53546944    -0.81930
O2101       O  0.39730536  0.51981616  0.59682915    -0.83670
O2102       O  0.50548669  0.60125582  0.56980194    -0.79290
O2103       O  0.41967269  0.53086256  0.55618972    -0.90930
O2104       O  0.48699848  0.55440722  0.64615445    -0.76890
O2105       O  0.47885320  0.59545078  0.59457874    -0.86380
O2106       O  0.43348547  0.56018623  0.60989000    -0.86070
O2107       O  0.45315021  0.60366039  0.53568209    -0.72830
O2108       O  0.41134180  0.56943918  0.55174375    -0.84970
Zr2109     Zr  0.40212061  0.65030209  0.59613938     2.26420
Zr2110     Zr  0.47294025  0.63886447  0.56811484     2.06270
Zr2111     Zr  0.38558661  0.57109643  0.59896413     2.10050
Zr2112     Zr  0.45406818  0.59482674  0.64063105     1.78760
O2113       O  0.34854674  0.55003093  0.57018764    -0.93770
O2114       O  0.49496866  0.61730174  0.66002933    -0.41580
O2115       O  0.40818525  0.60782786  0.62644510    -0.78210
O2116       O  0.44710842  0.63909443  0.61435903    -0.96900
O2117       O  0.42761864  0.64803098  0.55107647    -0.90200
O2118       O  0.38081688  0.61315180  0.56813948    -0.93040
C2119       C  0.49610760  0.53544629  0.62720058     1.00710
C2120       C  0.41485964  0.51287269  0.57653736     1.13640
C2121       C  0.51232978  0.59095753  0.54429644     1.04420
O2122       O  0.51459944  0.66631999  0.56755352    -0.95200
O2123       O  0.47136674  0.68062732  0.59802265    -0.90940
O2124       O  0.42851798  0.69166410  0.58888460    -0.84090
C2125       C  0.45348938  0.69789512  0.58926270     1.11060
O2126       O  0.42208664  0.58286093  0.97907065    -0.97170
Zr2127     Zr  0.40645689  0.61133493  0.52222181     1.88940
O2128       O  0.36744863  0.67098775  0.55786338    -0.73820
O2129       O  0.47706172  0.66302847  0.51930787    -0.53080
O2130       O  0.42010063  0.64306993  0.98147568    -0.97760
O2131       O  0.36910535  0.58421855  0.50072902    -0.54980
O2132       O  0.37122116  0.64665837  0.51303211    -0.74340
C2133       C  0.36094859  0.66687553  0.52900362     0.98010
O2134       O  0.39533045  0.68756925  0.63389253    -0.63160
O2135       O  0.36935310  0.55341658  0.64751851    -0.57960
O2136       O  0.37820507  0.63229290  0.63735174    -0.94640
O2137       O  0.34811652  0.60407417  0.61772723    -0.93070
O2138       O  0.43395554  0.56587889  0.68013672    -0.93420
O2139       O  0.44567850  0.62046311  0.68814119    -0.92210
C2140       C  0.35392416  0.62755902  0.63136048     1.16850
H2141       H  0.43577382  0.54259850  0.62061239     0.32790
H2142       H  0.45143657  0.65245114  0.63037717     0.43650
H2143       H  0.36190789  0.61707530  0.56399956     0.37170
H2144       H  0.46267814  0.60244036  0.51668393     0.33650
H2145       H  0.50094302  0.60523613  0.67712511     0.25440
H2146       H  0.49662693  0.66526664  0.51507603     0.31380
H2147       H  0.40546140  0.64180643  0.96606814     0.37290
H2148       H  0.44945107  0.55979206  0.69294535     0.31750
H2149       H  0.35534396  0.53940788  0.64194240     0.30620
H2150       H  0.33434115  0.54647243  0.58560656     0.32300
H2151       H  0.36254540  0.59576276  0.98346546     0.31270
H2152       H  0.42982099  0.63277270  0.68372949     0.35270
H2153       H  0.39052398  0.67814039  0.65314102     0.28000
H2154       H  0.46642367  0.54847562  0.49864856     0.32240
H2155       H  0.41132815  0.58929627  0.96134557     0.35090
H2156       H  0.38464727  0.54195065  0.65548408     0.27700
H2157       H  0.41351357  0.69502308  0.63894475     0.40570
H2158       H  0.51983400  0.66911006  0.58915757     0.30620
H2159       H  0.50879019  0.61398961  0.64397663     0.38240
H2160       H  0.35446660  0.58568514  0.51612975     0.30090
H2161       H  0.47054800  0.64972092  0.50348892     0.30150
H2162       H  0.45286412  0.52179486  0.01136795     0.30420
Zr2163     Zr  0.45860981  0.92795999  0.58278542     2.17510
O2164       O  0.46778555  0.96794153  0.61627213    -0.51940
O2165       O  0.48619700  0.95685947  0.54832988    -0.75140
O2166       O  0.49649160  0.91883477  0.61769060    -0.81930
O2167       O  0.39366354  0.95997935  0.54611094    -0.83670
O2168       O  0.50918078  0.88756274  0.58431327    -0.79290
O2169       O  0.41727090  0.95437667  0.58845467    -0.90930
O2170       O  0.49154091  0.93169777  0.50446829    -0.76890
O2171       O  0.48277125  0.89313496  0.55372038    -0.86380
O2172       O  0.43486031  0.92474085  0.53503520    -0.86070
O2173       O  0.45525440  0.88476503  0.61198206    -0.72830
O2174       O  0.41192985  0.91458805  0.59282653    -0.84970
Zr2175     Zr  0.41076095  0.83203077  0.54960736     2.26420
Zr2176     Zr  0.47824443  0.84968135  0.58122291     2.06270
Zr2177     Zr  0.38832135  0.90921815  0.54458976     2.10050
Zr2178     Zr  0.45948256  0.89116018  0.50669456     1.78760
O2179       O  0.34856765  0.92899327  0.57024090    -0.93770
O2180       O  0.50139230  0.86862030  0.98884260    -0.41580
O2181       O  0.41439331  0.87412592  0.51850005    -0.78210
O2182       O  0.45480852  0.84782929  0.53409444    -0.96900
O2183       O  0.43370905  0.83615779  0.59628392    -0.90200
O2184       O  0.38585263  0.86787494  0.57598064    -0.93040
C2185       C  0.49703424  0.95318005  0.52182222     1.00710
C2186       C  0.40806907  0.97022917  0.56753799     1.13640
C2187       C  0.51182072  0.89795108  0.61062739     1.04420
O2188       O  0.52200125  0.82599378  0.57968621    -0.95200
O2189       O  0.48627046  0.80754654  0.55209445    -0.90940
O2190       O  0.44302787  0.79347198  0.54531526    -0.84090
C2191       C  0.46889529  0.78956911  0.54324518     1.11060
O2192       O  0.42003575  0.90220071  0.66722525    -0.97170
Zr2193     Zr  0.40923268  0.87276965  0.62296830     1.88940
O2194       O  0.37797212  0.80860226  0.58762626    -0.73820
O2195       O  0.48212202  0.82571922  0.63009549    -0.53080
O2196       O  0.42388956  0.84276634  0.66483734    -0.97760
O2197       O  0.36916281  0.89813297  0.64158755    -0.54980
O2198       O  0.37555627  0.83619676  0.63037363    -0.74340
C2199       C  0.36836728  0.81430815  0.61507655     0.98010
O2200       O  0.40829582  0.79644365  0.00968058    -0.63160
O2201       O  0.37421654  0.92304533  0.99364203    -0.57960
O2202       O  0.38240587  0.84640898  0.50942324    -0.94640
O2203       O  0.35202198  0.87633674  0.52728304    -0.93070
O2204       O  0.44018718  0.92006697  0.96647746    -0.93420
O2205       O  0.45449648  0.86612841  0.95836287    -0.92210
C2206       C  0.35804768  0.85240509  0.51482141     1.16850
H2207       H  0.43563022  0.94232931  0.52408795     0.32790
H2208       H  0.46199906  0.83518442  0.51872866     0.43650
H2209       H  0.36718750  0.86271572  0.57939240     0.37170
H2210       H  0.46333709  0.88629198  0.63184609     0.33650
H2211       H  0.50808827  0.88110632  0.97255979     0.25440
H2212       H  0.50174636  0.82327735  0.63409515     0.31380
H2213       H  0.40817573  0.84209915  0.67887546     0.37290
H2214       H  0.45604433  0.92771353  0.95552595     0.31750
H2215       H  0.35706581  0.93403569  0.49700568     0.30620
H2216       H  0.33705705  0.93640363  0.55357916     0.32300
H2217       H  0.36204446  0.88636228  0.65827303     0.31270
H2218       H  0.44155662  0.85079882  0.96277159     0.35270
H2219       H  0.39027741  0.79737456  0.00018154     0.28000
H2220       H  0.48769501  0.97044470  0.61555746     0.32240
H2221       H  0.40866976  0.89514120  0.68407969     0.35090
H2222       H  0.38759539  0.93735841  0.98737585     0.27700
H2223       H  0.42064773  0.80316347  0.99351645     0.40570
H2224       H  0.53032784  0.83256620  0.56047999     0.30620
H2225       H  0.51432634  0.87122890  0.50570108     0.38240
H2226       H  0.35561328  0.89617889  0.62505690     0.30090
H2227       H  0.47568827  0.83935088  0.64574843     0.30150
H2228       H  0.46400157  0.96114064  0.63710220     0.30420
Zr2229     Zr  0.13527789  0.93597822  0.80216832     2.17510
O2230       O  0.12726286  0.97385566  0.76618178    -0.51940
O2231       O  0.09705312  0.95670408  0.83332895    -0.75140
O2232       O  0.09969396  0.92250926  0.76374216    -0.81930
O2233       O  0.18990078  0.96771843  0.85563035    -0.83670
O2234       O  0.11382052  0.88176995  0.74236709    -0.79290
O2235       O  0.17270425  0.96819745  0.80881912    -0.90930
O2236       O  0.09110205  0.93190673  0.87644367    -0.76890
O2237       O  0.11087155  0.89688589  0.81988685    -0.86380
O2238       O  0.15145629  0.92984727  0.85358161    -0.86070
O2239       O  0.15088934  0.89931178  0.76901036    -0.72830
O2240       O  0.18411593  0.92562622  0.80253484    -0.84970
Zr2241     Zr  0.18347088  0.83892027  0.83284865     2.26420
Zr2242     Zr  0.12599382  0.85877820  0.78684231     2.06270
Zr2243     Zr  0.19980791  0.91623862  0.85372352     2.10050
Zr2244     Zr  0.12546625  0.89305457  0.87181194     1.78760
O2245       O  0.24221720  0.93781217  0.83812219    -0.93770
O2246       O  0.08227569  0.86990415  0.88096932    -0.41580
O2247       O  0.17266489  0.87736574  0.86907467    -0.78210
O2248       O  0.13766635  0.85504070  0.83870799    -0.96900
O2249       O  0.17250154  0.84753781  0.78222178    -0.90200
O2250       O  0.21126316  0.87793197  0.81915029    -0.93040
C2251       C  0.08482333  0.95285414  0.85910596     1.00710
C2252       C  0.17738089  0.98067959  0.83407764     1.13640
C2253       C  0.09723424  0.90189509  0.74426348     1.04420
O2254       O  0.07863064  0.84759389  0.79099973    -0.95200
O2255       O  0.11207950  0.81440367  0.80665581    -0.90940
O2256       O  0.14797843  0.80346061  0.83649453    -0.84090
C2257       C  0.12335758  0.79975313  0.82732047     1.11060
O2258       O  0.20138707  0.92555173  0.73051794    -0.97170
Zr2259     Zr  0.19804919  0.88844274  0.76849566     1.88940
O2260       O  0.21719715  0.81814981  0.79500598    -0.73820
O2261       O  0.13018754  0.82185403  0.74807014    -0.53080
O2262       O  0.18504318  0.86945814  0.71878029    -0.97760
O2263       O  0.24284689  0.90983848  0.76593864    -0.54980
O2264       O  0.22858608  0.84921215  0.75823381    -0.74340
C2265       C  0.23049753  0.82488627  0.77046486     0.98010
O2266       O  0.19666456  0.79111440  0.84642973    -0.63160
O2267       O  0.20701470  0.92915590  0.90693729    -0.57960
O2268       O  0.20288205  0.84401003  0.88134606    -0.94640
O2269       O  0.23172004  0.87962926  0.87653918    -0.93070
O2270       O  0.13958172  0.91859425  0.91755598    -0.93420
O2271       O  0.12533904  0.86135553  0.91524569    -0.92210
C2272       C  0.22642921  0.85373754  0.88404823     1.16850
H2273       H  0.14730119  0.94613968  0.86621350     0.32790
H2274       H  0.12599404  0.84332352  0.85051549     0.43650
H2275       H  0.23030127  0.87291570  0.81988135     0.37170
H2276       H  0.14961831  0.90705018  0.74874232     0.33650
H2277       H  0.07460940  0.87967310  0.89912678     0.25440
H2278       H  0.11148151  0.81939930  0.74025798     0.31380
H2279       H  0.20234293  0.86501119  0.70822064     0.37290
H2280       H  0.12244441  0.92372905  0.92810871     0.31750
H2281       H  0.22330224  0.94126904  0.90671121     0.30620
H2282       H  0.25428892  0.93588358  0.85603596     0.32300
H2283       H  0.25187594  0.90053675  0.74830011     0.31270
H2284       H  0.13895678  0.84655537  0.91006469     0.35270
H2285       H  0.21668311  0.79017979  0.84502596     0.28000
H2286       H  0.10776469  0.97849545  0.76855188     0.32240
H2287       H  0.21284928  0.91756462  0.71396189     0.35090
H2288       H  0.19187175  0.94227483  0.91199721     0.27700
H2289       H  0.19246670  0.79034340  0.86834886     0.40570
H2290       H  0.07454989  0.85275930  0.81244270     0.30620
H2291       H  0.07047588  0.87604053  0.86396563     0.38240
H2292       H  0.25282907  0.90265187  0.78387601     0.30090
H2293       H  0.14008707  0.83073606  0.73108443     0.30150
H2294       H  0.13694150  0.99037513  0.77451330     0.30420
Zr2295     Zr  0.13044738  0.55764979  0.83152457     2.17510
O2296       O  0.11511267  0.51530874  0.85705455    -0.51940
O2297       O  0.10365233  0.52970898  0.79656244    -0.75140
O2298       O  0.09023482  0.56882200  0.86400615    -0.81930
O2299       O  0.21164740  0.52758281  0.80039712    -0.83670
O2300       O  0.09532400  0.61339933  0.88160768    -0.79290
O2301       O  0.17315309  0.54296048  0.81251833    -0.90930
O2302       O  0.08763969  0.56281519  0.76469429    -0.76890
O2303       O  0.10540795  0.59433032  0.80919140    -0.86380
O2304       O  0.15212609  0.56270124  0.78215392    -0.86070
O2305       O  0.14027681  0.59566252  0.86583325    -0.72830
O2306       O  0.17815874  0.56969232  0.83905473    -0.84970
Zr2307     Zr  0.18007588  0.65395318  0.80534465     2.26420
Zr2308     Zr  0.11615729  0.63369241  0.84097761     2.06270
Zr2309     Zr  0.20035748  0.57749778  0.78930632     2.10050
Zr2310     Zr  0.12565404  0.59894280  0.76087147     1.78760
O2311       O  0.24661579  0.56165882  0.79962048    -0.93770
O2312       O  0.08655777  0.62669465  0.74437645    -0.41580
O2313       O  0.17236685  0.61468331  0.76986795    -0.78210
O2314       O  0.13439364  0.64082270  0.79177178    -0.96900
O2315       O  0.16151504  0.64601609  0.85324789    -0.90200
O2316       O  0.20690596  0.61620981  0.82483915    -0.93040
C2317       C  0.08554496  0.53846131  0.77811573     1.00710
C2318       C  0.18946108  0.52250257  0.81326681     1.13640
C2319       C  0.08340477  0.59008770  0.88095423     1.04420
O2320       O  0.06828008  0.63873549  0.82776514    -0.95200
O2321       O  0.10731459  0.67944982  0.82421421    -0.90940
O2322       O  0.15005229  0.69360696  0.81455926    -0.84090
C2323       C  0.12513841  0.69814755  0.82105236     1.11060
O2324       O  0.18740356  0.57749429  0.91797130    -0.97170
Zr2325     Zr  0.18706097  0.60760254  0.87331332     1.88940
O2326       O  0.21393413  0.67452048  0.84322415    -0.73820
O2327       O  0.10888010  0.66820832  0.88187893    -0.53080
O2328       O  0.16919035  0.63164206  0.91853485    -0.97760
O2329       O  0.22901980  0.58089047  0.88097268    -0.54980
O2330       O  0.21881560  0.64552091  0.88372240    -0.74340
C2331       C  0.22437413  0.66836507  0.86975513     0.98010
O2332       O  0.19412851  0.69675729  0.77997885    -0.63160
O2333       O  0.20118132  0.56110114  0.73656237    -0.57960
O2334       O  0.20251277  0.64739053  0.75881889    -0.94640
O2335       O  0.23242403  0.61340223  0.76915050    -0.93070
O2336       O  0.13761446  0.56804311  0.71805064    -0.93420
O2337       O  0.12964206  0.62223842  0.71186844    -0.92210
C2338       C  0.22657634  0.63833161  0.75932158     1.16850
H2339       H  0.14995413  0.54645006  0.76866343     0.32790
H2340       H  0.12583312  0.65605818  0.78078048     0.43650
H2341       H  0.22584576  0.62105991  0.82672483     0.37170
H2342       H  0.13507239  0.59048079  0.88620507     0.33650
H2343       H  0.07473695  0.61295713  0.73372684     0.25440
H2344       H  0.08916981  0.66801988  0.88622872     0.31380
H2345       H  0.18530152  0.63839433  0.92986110     0.37290
H2346       H  0.12086387  0.55735051  0.71359561     0.31750
H2347       H  0.22062193  0.56133253  0.73084547     0.30620
H2348       H  0.25523815  0.55983207  0.77930208     0.32300
H2349       H  0.24373718  0.59452129  0.87715018     0.31270
H2350       H  0.14413840  0.63634342  0.71498166     0.35270
H2351       H  0.17791679  0.70323235  0.76856355     0.28000
H2352       H  0.10065096  0.50665244  0.84453315     0.32240
H2353       H  0.20061547  0.58612569  0.93221836     0.35090
H2354       H  0.19668140  0.54077877  0.73765009     0.27700
H2355       H  0.19682396  0.71109822  0.79624121     0.40570
H2356       H  0.06287579  0.62105610  0.81729579     0.30620
H2357       H  0.07667106  0.63146884  0.76339043     0.38240
H2358       H  0.22995919  0.56754742  0.86347967     0.30090
H2359       H  0.11754281  0.65995505  0.90015345     0.30150
H2360       H  0.10558362  0.52124926  0.87590829     0.30420
Zr2361     Zr  0.25823670  0.75797372  0.90378182     2.17510
O2362       O  0.21190842  0.75460939  0.92157769    -0.51940
O2363       O  0.27064226  0.75274754  0.85067465    -0.75140
O2364       O  0.24181925  0.80641513  0.89053028    -0.81930
O2365       O  0.25887212  0.68013685  0.90831527    -0.83670
O2366       O  0.26513397  0.84196958  0.91384437    -0.79290
O2367       O  0.23997290  0.71548953  0.87964749    -0.90930
O2368       O  0.31675924  0.74787430  0.85138768    -0.76890
O2369       O  0.29640951  0.78801725  0.90280221    -0.86380
O2370       O  0.29656498  0.72662265  0.90371660    -0.86070
O2371       O  0.25458921  0.78646220  0.94863885    -0.72830
O2372       O  0.25570935  0.72817480  0.94763491    -0.84970
Zr2373     Zr  0.32976202  0.75676806  0.99122774     2.26420
Zr2374     Zr  0.29359114  0.81578736  0.94850945     2.06270
Zr2375     Zr  0.29431913  0.69699562  0.94717401     2.10050
Zr2376     Zr  0.33452365  0.75685325  0.90201931     1.78760
O2377       O  0.26843612  0.66088716  0.97322647    -0.93770
O2378       O  0.34958842  0.79657479  0.87150485    -0.41580
O2379       O  0.33281262  0.72760203  0.94636576    -0.78210
O2380       O  0.33308487  0.78587712  0.94717176    -0.96900
O2381       O  0.29130188  0.78727608  0.99304098    -0.90200
O2382       O  0.29128160  0.72642133  0.99086128    -0.93040
C2383       C  0.29366100  0.74749427  0.83786370     1.00710
C2384       C  0.24264420  0.68919770  0.88659942     1.13640
C2385       C  0.24634688  0.83303738  0.89631673     1.04420
O2386       O  0.32342503  0.84899962  0.92329362    -0.95200
O2387       O  0.31992033  0.84053515  0.98577875    -0.90940
O2388       O  0.34400693  0.80491191  0.50829714    -0.84090
C2389       C  0.33845013  0.83140084  0.00343359     1.11060
O2390       O  0.20426721  0.76471366  0.98687351    -0.97170
Zr2391     Zr  0.25306358  0.75712564  0.99259508     1.88940
O2392       O  0.31710743  0.75197538  0.54336629    -0.73820
O2393       O  0.26502343  0.84881460  0.97739826    -0.53080
O2394       O  0.23915872  0.79774157  0.52355600    -0.97760
O2395       O  0.22559665  0.71807584  0.51035661    -0.54980
O2396       O  0.27102855  0.74764949  0.54247308    -0.74340
C2397       C  0.29420320  0.74672621  0.55568639     0.98010
O2398       O  0.37783395  0.74923441  0.98159561    -0.63160
O2399       O  0.32079620  0.66165400  0.91918497    -0.57960
O2400       O  0.34572523  0.71422913  0.51769074    -0.94640
O2401       O  0.32767890  0.67890178  0.98840712    -0.93070
O2402       O  0.36192086  0.71714972  0.88362342    -0.93420
O2403       O  0.38360189  0.76227326  0.90570120    -0.92210
C2404       C  0.34293611  0.68787246  0.01121005     1.16850
H2405       H  0.29635619  0.71417729  0.88617670     0.32790
H2406       H  0.34919943  0.79733372  0.94815912     0.43650
H2407       H  0.29127576  0.71377697  0.50792265     0.37170
H2408       H  0.23828261  0.79793676  0.94820173     0.33650
H2409       H  0.36053591  0.78785628  0.85492349     0.25440
H2410       H  0.26906951  0.86765460  0.96896357     0.31380
H2411       H  0.23287798  0.78964657  0.54302225     0.37290
H2412       H  0.34859242  0.70255280  0.87770099     0.31750
H2413       H  0.31416397  0.64332126  0.92676500     0.30620
H2414       H  0.28085753  0.64434970  0.97413706     0.32300
H2415       H  0.22211938  0.72232240  0.53215705     0.31270
H2416       H  0.38645686  0.78201655  0.91258778     0.35270
H2417       H  0.37975417  0.72947374  0.97422330     0.28000
H2418       H  0.20605977  0.73534924  0.91593635     0.32240
H2419       H  0.19700793  0.76627461  0.50793381     0.35090
H2420       H  0.31392913  0.66265573  0.89801338     0.27700
H2421       H  0.38206839  0.76081263  0.96364713     0.40570
H2422       H  0.32204487  0.84415565  0.90135852     0.30620
H2423       H  0.33304766  0.80366942  0.86116704     0.38240
H2424       H  0.23815777  0.70162669  0.51053712     0.30090
H2425       H  0.24616137  0.84493590  0.97090695     0.30150
H2426       H  0.20125487  0.76786982  0.90916941     0.30420
Zr2427     Zr  0.33118688  0.72714097  0.65110141     2.17510
O2428       O  0.37983555  0.73500736  0.65652143    -0.51940
O2429       O  0.31700924  0.73208431  0.59923132    -0.75140
O2430       O  0.34269248  0.67672312  0.63659292    -0.81930
O2431       O  0.33414679  0.80432056  0.65476660    -0.83670
O2432       O  0.31469509  0.64389425  0.65693374    -0.79290
O2433       O  0.34960940  0.76806133  0.62442497    -0.90930
O2434       O  0.27122876  0.73970158  0.60057651    -0.76890
O2435       O  0.29113280  0.69962718  0.65026980    -0.86380
O2436       O  0.29404905  0.76008773  0.65154209    -0.86070
O2437       O  0.33375213  0.69955925  0.69642231    -0.72830
O2438       O  0.33548233  0.75628775  0.69610088    -0.84970
Zr2439     Zr  0.25908636  0.73242910  0.73940898     2.26420
Zr2440     Zr  0.29309812  0.67224030  0.69564591     2.06270
Zr2441     Zr  0.29872472  0.78963728  0.69487501     2.10050
Zr2442     Zr  0.25413778  0.73237841  0.65081936     1.78760
O2443       O  0.32696769  0.82278982  0.72306462    -0.93770
O2444       O  0.23530763  0.69333165  0.62125137    -0.41580
O2445       O  0.25803248  0.76177433  0.69502394    -0.78210
O2446       O  0.25463069  0.70351461  0.69493107    -0.96900
O2447       O  0.29611488  0.70007712  0.74142506    -0.90200
O2448       O  0.29885668  0.76113378  0.73940988    -0.93040
C2449       C  0.29422467  0.73878613  0.58710603     1.00710
C2450       C  0.34900167  0.79444210  0.63195460     1.13640
C2451       C  0.33494902  0.65067742  0.64071100     1.04420
O2452       O  0.26102195  0.63891886  0.67364742    -0.95200
O2453       O  0.26611273  0.64815451  0.73195173    -0.90940
O2454       O  0.24192341  0.68490640  0.75238758    -0.84090
C2455       C  0.24672050  0.65816358  0.74791152     1.11060
O2456       O  0.38416945  0.71907288  0.73839897    -0.97170
Zr2457     Zr  0.33552095  0.72861343  0.74170535     1.88940
O2458       O  0.27115618  0.73619532  0.79229236    -0.73820
O2459       O  0.32368527  0.63919254  0.72113566    -0.53080
O2460       O  0.34906378  0.68733805  0.77094596    -0.97760
O2461       O  0.36281057  0.76732447  0.76173582    -0.54980
O2462       O  0.31729138  0.73847096  0.79236205    -0.74340
C2463       C  0.29398842  0.74017664  0.80549644     0.98010
O2464       O  0.20990209  0.73786802  0.73931495    -0.63160
O2465       O  0.27589939  0.82788489  0.66803813    -0.57960
O2466       O  0.24346019  0.77706706  0.76105969    -0.94640
O2467       O  0.26451584  0.81061365  0.73247666    -0.93070
O2468       O  0.22882520  0.77244716  0.63060854    -0.93420
O2469       O  0.20525226  0.73195847  0.65951990    -0.92210
C2470       C  0.24765567  0.80292456  0.75391161     1.16850
H2471       H  0.29452197  0.77254491  0.63428328     0.32790
H2472       H  0.23807788  0.69274961  0.69545895     0.43650
H2473       H  0.29913443  0.77383281  0.75674638     0.37170
H2474       H  0.34959914  0.68740663  0.69569769     0.33650
H2475       H  0.22392601  0.70253837  0.60554031     0.25440
H2476       H  0.31614127  0.62029073  0.71655554     0.31380
H2477       H  0.35647240  0.69514202  0.79021365     0.37290
H2478       H  0.24067931  0.78890500  0.63435326     0.31750
H2479       H  0.28568290  0.84512674  0.67448922     0.30620
H2480       H  0.31504468  0.83942390  0.72679340     0.32300
H2481       H  0.36856841  0.76107114  0.78223626     0.31270
H2482       H  0.20095203  0.71230359  0.66521183     0.35270
H2483       H  0.20624121  0.75522350  0.72750785     0.28000
H2484       H  0.38476188  0.72387723  0.67469032     0.32240
H2485       H  0.39178589  0.73497146  0.72675987     0.35090
H2486       H  0.28100925  0.82510404  0.64639099     0.27700
H2487       H  0.20354072  0.72247158  0.72572880     0.40570
H2488       H  0.25556159  0.64740456  0.65402844     0.30620
H2489       H  0.25088065  0.68525325  0.60975117     0.38240
H2490       H  0.34967755  0.78287622  0.76574445     0.30090
H2491       H  0.34097332  0.63962284  0.70966104     0.30150
H2492       H  0.38210861  0.75472881  0.66375255     0.30420
Zr2493     Zr  0.60227560  0.90664317  0.69031919     2.17510
O2494       O  0.56381287  0.92563301  0.66240220    -0.51940
O2495       O  0.57788305  0.94206193  0.72066981    -0.75140
O2496       O  0.57453765  0.87088205  0.71476956    -0.81930
O2497       O  0.64355220  0.95960099  0.65284719    -0.83670
O2498       O  0.58485526  0.82620521  0.70592977    -0.79290
O2499       O  0.61534413  0.92486402  0.63933337    -0.90930
O2500       O  0.59769224  0.94198494  0.76733368    -0.76890
O2501       O  0.61010295  0.88102170  0.73623452    -0.86380
O2502       O  0.63256718  0.93658858  0.71772465    -0.86070
O2503       O  0.62018249  0.86002375  0.67648786    -0.72830
O2504       O  0.64422165  0.90493205  0.66543790    -0.84970
Zr2505     Zr  0.69982424  0.86715530  0.71441860     2.26420
Zr2506     Zr  0.63067002  0.83544425  0.72402651     2.06270
Zr2507     Zr  0.67347115  0.93718704  0.68873813     2.10050
Zr2508     Zr  0.63954631  0.91123414  0.76346067     1.78760
O2509       O  0.70745804  0.95608852  0.65449982    -0.93770
O2510       O  0.61305036  0.88936279  0.80363518    -0.41580
O2511       O  0.68080463  0.91122421  0.73378327    -0.78210
O2512       O  0.66156335  0.86635419  0.74956110    -0.96900
O2513       O  0.66835540  0.83751453  0.68988908    -0.90200
O2514       O  0.69156409  0.89268594  0.66938119    -0.93040
C2515       C  0.57885636  0.95023258  0.74863019     1.00710
C2516       C  0.63149403  0.94521583  0.63238178     1.13640
C2517       C  0.56843326  0.84703140  0.70318860     1.04420
O2518       O  0.60746444  0.82354025  0.77112528    -0.95200
O2519       O  0.66598784  0.80776216  0.75248658    -0.90940
O2520       O  0.70575712  0.82021228  0.73081211    -0.84090
C2521       C  0.69208830  0.80554958  0.74926786     1.11060
O2522       O  0.64138867  0.88247853  0.59759448    -0.97170
Zr2523     Zr  0.65968292  0.86201147  0.64417602     1.88940
O2524       O  0.72223338  0.83515073  0.67456444    -0.73820
O2525       O  0.62916048  0.78678460  0.70553306    -0.53080
O2526       O  0.63059741  0.82705758  0.61969387    -0.97760
O2527       O  0.69325598  0.87280643  0.60499535    -0.54980
O2528       O  0.69014902  0.82186484  0.64056373    -0.74340
C2529       C  0.71384409  0.81922928  0.65193853     0.98010
O2530       O  0.73302783  0.86454087  0.75552150    -0.63160
O2531       O  0.67021669  0.98626367  0.70619837    -0.57960
O2532       O  0.73492961  0.90227455  0.71035954    -0.94640
O2533       O  0.71312752  0.94397597  0.71843213    -0.93070
O2534       O  0.65829745  0.95527647  0.78301158    -0.93420
O2535       O  0.66467781  0.90703309  0.81103640    -0.92210
C2536       C  0.73443985  0.92887743  0.71643889     1.16850
H2537       H  0.62605932  0.95568637  0.72083389     0.32790
H2538       H  0.66755222  0.85798423  0.76841561     0.43650
H2539       H  0.70806805  0.89538986  0.65795793     0.37170
H2540       H  0.60723853  0.85001695  0.66438829     0.33650
H2541       H  0.60970028  0.90474642  0.81866721     0.25440
H2542       H  0.61400304  0.77810663  0.71681310     0.31380
H2543       H  0.64275274  0.81650624  0.60557646     0.37290
H2544       H  0.64356795  0.96379799  0.79550958     0.31750
H2545       H  0.65231651  0.99336509  0.69924911     0.30620
H2546       H  0.70444007  0.97680076  0.65524838     0.32300
H2547       H  0.69101177  0.85788180  0.58924098     0.31270
H2548       H  0.68331445  0.90160294  0.80468410     0.35270
H2549       H  0.73147510  0.88326322  0.76559929     0.28000
H2550       H  0.54765742  0.91865874  0.67310594     0.32240
H2551       H  0.64187853  0.86725957  0.58195927     0.35090
H2552       H  0.66857131  0.98517997  0.72863893     0.27700
H2553       H  0.72533895  0.85164677  0.77083488     0.40570
H2554       H  0.58983199  0.83369881  0.77009701     0.30620
H2555       H  0.59501520  0.88588943  0.79443660     0.38240
H2556       H  0.71125430  0.86864316  0.61399824     0.30090
H2557       H  0.62259261  0.78816451  0.68426481     0.30150
H2558       H  0.56406020  0.91624089  0.64223845     0.30420
Zr2559     Zr  0.97234868  0.90254345  0.72481884     2.17510
O2560       O  0.00959675  0.92728624  0.75017881    -0.51940
O2561       O  0.99865102  0.93580160  0.69279275    -0.75140
O2562       O  0.98207850  0.85334318  0.72201864    -0.81930
O2563       O  0.92294698  0.93213693  0.78518345    -0.83670
O2564       O  0.99759191  0.83333484  0.68191814    -0.79290
O2565       O  0.96619453  0.91652749  0.77939026    -0.90930
O2566       O  0.97276403  0.94876506  0.65275469    -0.76890
O2567       O  0.96791460  0.88434611  0.67327374    -0.86380
O2568       O  0.94001567  0.93424103  0.70556525    -0.86070
O2569       O  0.93937848  0.86753728  0.71444773    -0.72830
O2570       O  0.93477893  0.89387254  0.75602735    -0.84970
Zr2571     Zr  0.87800447  0.86138362  0.69240625     2.26420
Zr2572     Zr  0.94853965  0.83617061  0.67285840     2.06270
Zr2573     Zr  0.90131154  0.92489575  0.73678980     2.10050
Zr2574     Zr  0.93374887  0.91613791  0.65468732     1.78760
O2575       O  0.86683314  0.93499613  0.77527626    -0.93770
O2576       O  0.95938918  0.90169085  0.60949553    -0.41580
O2577       O  0.89375065  0.90912527  0.68590568    -0.78210
O2578       O  0.91487866  0.86875151  0.65522099    -0.96900
O2579       O  0.91197106  0.82794954  0.70859863    -0.90200
O2580       O  0.88574349  0.87723181  0.74276079    -0.93040
C2581       C  0.99447676  0.95097150  0.66894068     1.00710
C2582       C  0.94680252  0.92731206  0.79577004     1.13640
C2583       C  0.00236999  0.84595879  0.70689389     1.04420
O2584       O  0.95758070  0.83241103  0.61843266    -0.95200
O2585       O  0.91342888  0.80324677  0.65314359    -0.90940
O2586       O  0.87783554  0.83273790  0.64862109    -0.84090
C2587       C  0.88847177  0.80857009  0.64608579     1.11060
O2588       O  0.95140559  0.84641280  0.80263656    -0.97170
Zr2589     Zr  0.92142037  0.84599020  0.75843626     1.88940
O2590       O  0.85773819  0.82426497  0.72750066    -0.73820
O2591       O  0.96346916  0.79032208  0.69238198    -0.53080
O2592       O  0.95712531  0.81022543  0.75976731    -0.97760
O2593       O  0.89338969  0.85480170  0.80370620    -0.54980
O2594       O  0.88890262  0.80925163  0.76192325    -0.74340
C2595       C  0.86529932  0.80831035  0.75030119     0.98010
O2596       O  0.83632438  0.86509883  0.66259085    -0.63160
O2597       O  0.90489792  0.97601980  0.73322273    -0.57960
O2598       O  0.84146415  0.89444528  0.70311840    -0.94640
O2599       O  0.86083359  0.93706650  0.71079780    -0.93070
O2600       O  0.91289833  0.96200058  0.64472085    -0.93420
O2601       O  0.90616324  0.91978693  0.60876588    -0.92210
C2602       C  0.84051551  0.92133542  0.70662925     1.16850
H2603       H  0.94594483  0.95363575  0.70644072     0.32790
H2604       H  0.91019742  0.86452344  0.63430188     0.43650
H2605       H  0.86943405  0.87637682  0.75489490     0.37170
H2606       H  0.92447095  0.87861967  0.70678111     0.33650
H2607       H  0.96085201  0.91906067  0.59721300     0.25440
H2608       H  0.97452486  0.78178015  0.67578891     0.31380
H2609       H  0.94743061  0.79227225  0.76308290     0.37290
H2610       H  0.92570840  0.97159941  0.63093798     0.31750
H2611       H  0.89638763  0.98084660  0.71347855     0.30620
H2612       H  0.85979716  0.95415289  0.77070866     0.32300
H2613       H  0.89836186  0.83968700  0.81816621     0.31270
H2614       H  0.88816864  0.91250991  0.61476933     0.35270
H2615       H  0.84177413  0.87636901  0.64474870     0.28000
H2616       H  0.02582311  0.92737951  0.73699678     0.32240
H2617       H  0.94623474  0.82983726  0.81488811     0.35090
H2618       H  0.89232391  0.98386735  0.74878177     0.27700
H2619       H  0.83255671  0.84640033  0.65366967     0.40570
H2620       H  0.97676310  0.83815886  0.61632143     0.30620
H2621       H  0.97812861  0.89809649  0.61674951     0.38240
H2622       H  0.87441731  0.85048912  0.79804821     0.30090
H2623       H  0.97644396  0.79368258  0.70918550     0.30150
H2624       H  0.01450781  0.91793006  0.76945396     0.30420
Zr2625     Zr  0.60334834  0.58206438  0.96380417     2.17510
O2626       O  0.56345498  0.56570615  0.49024904    -0.51940
O2627       O  0.57797920  0.54862452  0.93294361    -0.75140
O2628       O  0.57576496  0.62003868  0.94226598    -0.81930
O2629       O  0.63766502  0.52358479  0.98081869    -0.83670
O2630       O  0.58665754  0.66402247  0.95283934    -0.79290
O2631       O  0.61139431  0.55158570  0.50761113    -0.90930
O2632       O  0.59856489  0.54633669  0.88680907    -0.76890
O2633       O  0.61023807  0.60874733  0.91839807    -0.86380
O2634       O  0.63370655  0.55354196  0.93455918    -0.86070
O2635       O  0.62169374  0.62783461  0.97877049    -0.72830
O2636       O  0.64428295  0.58012461  0.99289238    -0.84970
Zr2637     Zr  0.70060758  0.62071116  0.93914355     2.26420
Zr2638     Zr  0.63117020  0.65357635  0.93172505     2.06270
Zr2639     Zr  0.67461862  0.55147155  0.96340354     2.10050
Zr2640     Zr  0.63927379  0.57904881  0.88946269     1.78760
O2641       O  0.70165469  0.53995550  0.50717653    -0.93770
O2642       O  0.61014672  0.60172858  0.85184087    -0.41580
O2643       O  0.68095368  0.57803375  0.91887671    -0.78210
O2644       O  0.66178195  0.62298146  0.90456998    -0.96900
O2645       O  0.66941482  0.65009446  0.96528808    -0.90200
O2646       O  0.69271231  0.59510494  0.98331712    -0.93040
C2647       C  0.57953544  0.53887088  0.90568459     1.00710
C2648       C  0.62750187  0.53014465  0.50568808     1.13640
C2649       C  0.57025516  0.64354321  0.95530224     1.04420
O2650       O  0.60737538  0.66288563  0.88416754    -0.95200
O2651       O  0.66467847  0.68436557  0.90545151    -0.90940
O2652       O  0.70501240  0.66153216  0.91064266    -0.84090
C2653       C  0.69060358  0.68192909  0.90124868     1.11060
O2654       O  0.63428392  0.60623892  0.55344555    -0.97170
Zr2655     Zr  0.66016011  0.62454791  0.51070057     1.88940
O2656       O  0.72263753  0.65441832  0.97800321    -0.73820
O2657       O  0.62771763  0.70306396  0.94733272    -0.53080
O2658       O  0.63526421  0.66352513  0.53475725    -0.97760
O2659       O  0.69087693  0.60861339  0.55089097    -0.54980
O2660       O  0.69334664  0.66174045  0.51813069    -0.74340
C2661       C  0.71588004  0.66740961  0.00350240     0.98010
O2662       O  0.73916629  0.61782054  0.90440407    -0.63160
O2663       O  0.67996431  0.50541332  0.93805400    -0.57960
O2664       O  0.73583549  0.58474930  0.94119454    -0.94640
O2665       O  0.71657866  0.54158188  0.93908861    -0.93070
O2666       O  0.65882232  0.53610013  0.86728645    -0.93420
O2667       O  0.66283370  0.58539867  0.84124415    -0.92210
C2668       C  0.73667830  0.55785182  0.93660001     1.16850
H2669       H  0.62759085  0.53465072  0.93003198     0.32790
H2670       H  0.66715299  0.63188139  0.88583253     0.43650
H2671       H  0.70949364  0.59262219  0.99434362     0.37170
H2672       H  0.60915711  0.63757455  0.99189048     0.33650
H2673       H  0.60767297  0.58720080  0.83570545     0.25440
H2674       H  0.61167276  0.71064307  0.93641383     0.31380
H2675       H  0.64657801  0.66922391  0.55238921     0.37290
H2676       H  0.64401981  0.52783030  0.85491386     0.31750
H2677       H  0.66173556  0.49683216  0.93789727     0.30620
H2678       H  0.71997302  0.54715015  0.50270999     0.32300
H2679       H  0.68806434  0.62226288  0.56786741     0.31270
H2680       H  0.68164222  0.59026862  0.84713614     0.35270
H2681       H  0.73190177  0.62182703  0.88383636     0.28000
H2682       H  0.54817354  0.57461031  0.47949644     0.32240
H2683       H  0.63872673  0.61841811  0.57118975     0.35090
H2684       H  0.68317806  0.50955702  0.91628068     0.27700
H2685       H  0.75100800  0.63385763  0.90946487     0.40570
H2686       H  0.58811870  0.65863947  0.88848967     0.30620
H2687       H  0.59210712  0.60329761  0.86169610     0.38240
H2688       H  0.70943915  0.61264070  0.54357997     0.30090
H2689       H  0.62227362  0.70275232  0.96904744     0.30150
H2690       H  0.56435654  0.57474573  0.51049927     0.30420
Zr2691     Zr  0.97072016  0.57771365  0.94537939     2.17510
O2692       O  0.00518944  0.55809908  0.91192953    -0.51940
O2693       O  0.99887404  0.54665955  0.97656002    -0.75140
O2694       O  0.99313891  0.61644321  0.97109225    -0.81930
O2695       O  0.92659420  0.51956396  0.93385023    -0.83670
O2696       O  0.99861196  0.66044627  0.96259570    -0.79290
O2697       O  0.95053967  0.54713158  0.90455962    -0.90930
O2698       O  0.98244049  0.55201106  0.52430728    -0.76890
O2699       O  0.96783323  0.60852888  0.98967512    -0.86380
O2700       O  0.94171552  0.55347519  0.97934731    -0.86070
O2701       O  0.95943056  0.62696096  0.93090438    -0.72830
O2702       O  0.92835701  0.57884969  0.91805137    -0.84970
Zr2703     Zr  0.88043873  0.62970489  0.97713267     2.26420
Zr2704     Zr  0.95104223  0.65638154  0.97752925     2.06270
Zr2705     Zr  0.89926779  0.55618444  0.95453892     2.10050
Zr2706     Zr  0.94005695  0.58328367  0.52286955     1.78760
O2707       O  0.86990811  0.55273156  0.90985953    -0.93770
O2708       O  0.97065332  0.60543041  0.55945840    -0.41580
O2709       O  0.89473864  0.58452631  0.49897048    -0.78210
O2710       O  0.92187584  0.63020595  0.51027632    -0.96900
O2711       O  0.91060461  0.65623587  0.94650851    -0.90200
O2712       O  0.91168580  0.60379510  0.95081599    -0.93040
C2713       C  0.00002112  0.54152375  0.50490460     1.00710
C2714       C  0.93350046  0.52667652  0.90748887     1.13640
C2715       C  0.00754324  0.63547122  0.95927021     1.04420
O2716       O  0.97120113  0.66950931  0.52674592    -0.95200
O2717       O  0.91521302  0.69217583  0.49430325    -0.90940
O2718       O  0.88440783  0.66410515  0.51549479    -0.84090
C2719       C  0.89252664  0.68812974  0.50865009     1.11060
O2720       O  0.94683158  0.61277945  0.85989129    -0.97170
Zr2721     Zr  0.91851369  0.62626113  0.90325323     1.88940
O2722       O  0.85859525  0.66238022  0.93722376    -0.73820
O2723       O  0.96073057  0.70355862  0.95866931    -0.53080
O2724       O  0.94384451  0.66498501  0.88112813    -0.97760
O2725       O  0.88505739  0.60359886  0.87091508    -0.54980
O2726       O  0.88214243  0.65939898  0.89293368    -0.74340
C2727       C  0.86272347  0.66973957  0.90881971     0.98010
O2728       O  0.84650120  0.62854041  0.51846005    -0.63160
O2729       O  0.89462610  0.51808520  0.99153141    -0.57960
O2730       O  0.84335928  0.60556755  0.45527909    -0.94640
O2731       O  0.85362320  0.56203498  0.97036714    -0.93070
O2732       O  0.92113851  0.54173765  0.54700716    -0.93420
O2733       O  0.92022353  0.59133228  0.57307235    -0.92210
C2734       C  0.83790759  0.57892548  0.95665466     1.16850
H2735       H  0.94728812  0.53435148  0.98383348     0.32790
H2736       H  0.92088368  0.63956708  0.52990492     0.43650
H2737       H  0.92783417  0.60557390  0.96269933     0.37170
H2738       H  0.97270539  0.63467447  0.91745578     0.33650
H2739       H  0.97601202  0.59005917  0.57345316     0.25440
H2740       H  0.97760438  0.70960752  0.96901630     0.31380
H2741       H  0.93161533  0.67292319  0.86541119     0.37290
H2742       H  0.93345849  0.52601073  0.54099746     0.31750
H2743       H  0.87530394  0.51251041  0.99127895     0.30620
H2744       H  0.85496977  0.53972516  0.91481739     0.32300
H2745       H  0.89384641  0.58576427  0.86411582     0.31270
H2746       H  0.90249580  0.60056055  0.56894345     0.35270
H2747       H  0.83419136  0.61293333  0.51281067     0.28000
H2748       H  0.02236540  0.55906431  0.92332027     0.32240
H2749       H  0.93560561  0.61688137  0.84172022     0.35090
H2750       H  0.90488053  0.50149013  0.98363007     0.27700
H2751       H  0.85629854  0.62142805  0.53658870     0.40570
H2752       H  0.98970620  0.66117574  0.52627791     0.30620
H2753       H  0.98735972  0.60934519  0.54774798     0.38240
H2754       H  0.88424764  0.61528708  0.85233558     0.30090
H2755       H  0.96578009  0.70084837  0.93701168     0.30150
H2756       H  0.00625584  0.57111006  0.89456322     0.30420
Zr2757     Zr  0.77866083  0.71514477  0.87981103     2.17510
O2758       O  0.76636931  0.68145886  0.91938912    -0.51940
O2759       O  0.78486125  0.74093584  0.92612706    -0.75140
O2760       O  0.81853182  0.68917083  0.89815511    -0.81930
O2761       O  0.69716595  0.72028056  0.86664729    -0.83670
O2762       O  0.85350690  0.70664544  0.87057943    -0.79290
O2763       O  0.73298472  0.69893783  0.88919707    -0.90930
O2764       O  0.78789643  0.78830866  0.92294325    -0.76890
O2765       O  0.80909486  0.75351251  0.87470533    -0.86380
O2766       O  0.75045566  0.75572476  0.87459199    -0.86070
O2767       O  0.80579064  0.70201316  0.83616080    -0.72830
O2768       O  0.75109155  0.70542466  0.83597229    -0.84970
Zr2769     Zr  0.77956489  0.77413369  0.78108688     2.26420
Zr2770     Zr  0.83597427  0.74155966  0.83064512     2.06270
Zr2771     Zr  0.72290164  0.74694415  0.83012199     2.10050
Zr2772     Zr  0.78076002  0.79424802  0.86860199     1.78760
O2773       O  0.69041084  0.71613428  0.80481352    -0.93770
O2774       O  0.81993069  0.82369496  0.87970784    -0.41580
O2775       O  0.75269340  0.78637378  0.82456146    -0.78210
O2776       O  0.80788230  0.78332739  0.82472897    -0.96900
O2777       O  0.80831306  0.73367043  0.78645578    -0.90200
O2778       O  0.74962122  0.73561270  0.78590956    -0.93040
C2779       C  0.78808326  0.76531128  0.93799601     1.00710
C2780       C  0.70734231  0.70228119  0.88487749     1.13640
C2781       C  0.84390727  0.69029141  0.89196522     1.04420
O2782       O  0.87149099  0.76807884  0.85645162    -0.95200
O2783       O  0.85396885  0.77381278  0.78924908    -0.90940
O2784       O  0.82067233  0.79190768  0.75879176    -0.84090
C2785       C  0.84555695  0.78952919  0.76659273     1.11060
O2786       O  0.77176016  0.64744545  0.81106148    -0.97170
Zr2787     Zr  0.77827427  0.69503477  0.79157395     1.88940
O2788       O  0.78378686  0.75028590  0.73273572    -0.73820
O2789       O  0.87057971  0.71350192  0.80438952    -0.53080
O2790       O  0.81780551  0.66639104  0.77761829    -0.97760
O2791       O  0.74078568  0.67106113  0.76616072    -0.54980
O2792       O  0.78516336  0.70256401  0.73691989    -0.74340
C2793       C  0.78628960  0.72537083  0.72134773     0.98010
O2794       O  0.77576215  0.82254584  0.76270903    -0.63160
O2795       O  0.69160859  0.78046845  0.85427480    -0.57960
O2796       O  0.73508618  0.78841620  0.76220733    -0.94640
O2797       O  0.69970627  0.77443757  0.79134908    -0.93070
O2798       O  0.74307008  0.81725563  0.89519153    -0.93420
O2799       O  0.77462810  0.84247464  0.85074811    -0.92210
C2800       C  0.70955605  0.78757969  0.76859727     1.16850
H2801       H  0.73927972  0.75842256  0.89249281     0.32790
H2802       H  0.81902450  0.79962623  0.82101981     0.43650
H2803       H  0.73829163  0.73362753  0.76807081     0.37170
H2804       H  0.81570055  0.68463087  0.83953374     0.33650
H2805       H  0.81469121  0.83477117  0.89807666     0.25440
H2806       H  0.88722942  0.71622306  0.81668229     0.31380
H2807       H  0.81231104  0.65599759  0.75895403     0.37290
H2808       H  0.75166201  0.83148604  0.90869401     0.31750
H2809       H  0.67335837  0.77255689  0.85048712     0.30620
H2810       H  0.67248164  0.72505345  0.80880249     0.32300
H2811       H  0.74958134  0.65826657  0.75106518     0.31270
H2812       H  0.78012045  0.84174925  0.82905717     0.35270
H2813       H  0.79044498  0.83334152  0.77275973     0.28000
H2814       H  0.76273102  0.69288791  0.93800110     0.32240
H2815       H  0.77610784  0.63440470  0.79393542     0.35090
H2816       H  0.69449796  0.77824670  0.87644987     0.27700
H2817       H  0.78065788  0.82185882  0.74082722     0.40570
H2818       H  0.86766643  0.76573953  0.87842979     0.30620
H2819       H  0.83402469  0.81031482  0.88696490     0.38240
H2820       H  0.73170516  0.68566108  0.75367282     0.30090
H2821       H  0.86540117  0.69364505  0.80803906     0.30150
H2822       H  0.78231009  0.66976769  0.92479248     0.30420
Zr2823     Zr  0.79866040  0.77403362  0.62939966     2.17510
O2824       O  0.80336984  0.80892689  0.67060432    -0.51940
O2825       O  0.79374542  0.74912157  0.67642561    -0.75140
O2826       O  0.75780955  0.80009153  0.64333967    -0.81930
O2827       O  0.87881966  0.76622505  0.61974307    -0.83670
O2828       O  0.72344951  0.77919875  0.61704248    -0.79290
O2829       O  0.84415800  0.79378163  0.63679233    -0.90930
O2830       O  0.79237562  0.70158519  0.67282732    -0.76890
O2831       O  0.77006333  0.73387226  0.62398393    -0.86380
O2832       O  0.82862040  0.73492179  0.62416635    -0.86070
O2833       O  0.77066181  0.78354230  0.58534629    -0.72830
O2834       O  0.82502187  0.78527650  0.58539421    -0.84970
Zr2835     Zr  0.80015330  0.71292695  0.52946006     2.26420
Zr2836     Zr  0.74249964  0.74225465  0.57958599     2.06270
Zr2837     Zr  0.85437188  0.74486044  0.57900810     2.10050
Zr2838     Zr  0.80038511  0.69466079  0.61823889     1.78760
O2839       O  0.88684533  0.78063476  0.56375261    -0.93770
O2840       O  0.76251394  0.66395195  0.63033615    -0.41580
O2841       O  0.82735783  0.70314160  0.57338872    -0.78210
O2842       O  0.77323341  0.70242671  0.57383898    -0.96900
O2843       O  0.76931072  0.75182990  0.53515742    -0.90200
O2844       O  0.82733538  0.75368374  0.53465934    -0.93040
C2845       C  0.79114665  0.72474172  0.68817516     1.00710
C2846       C  0.86968729  0.78769411  0.63398003     1.13640
C2847       C  0.73264080  0.79774926  0.63684431     1.04420
O2848       O  0.70838672  0.71660841  0.60809258    -0.95200
O2849       O  0.72516479  0.70495328  0.54182321    -0.90940
O2850       O  0.75957808  0.68782372  0.51204551    -0.84090
C2851       C  0.73454148  0.68813983  0.52020778     1.11060
O2852       O  0.79858452  0.84125938  0.55981018    -0.97170
Zr2853     Zr  0.79708678  0.79258836  0.54107783     1.88940
O2854       O  0.79425941  0.73997487  0.98199346    -0.73820
O2855       O  0.70704679  0.76637733  0.55092712    -0.53080
O2856       O  0.75635402  0.81856980  0.52609261    -0.97760
O2857       O  0.83492833  0.81776967  0.51835347    -0.54980
O2858       O  0.79340324  0.78768233  0.98663893    -0.74340
C2859       C  0.79231311  0.76482755  0.97092676     0.98010
O2860       O  0.80885955  0.66965221  0.50022633    -0.63160
O2861       O  0.88537015  0.70721936  0.59442803    -0.57960
O2862       O  0.84761706  0.70192108  0.51533281    -0.94640
O2863       O  0.88050836  0.72912716  0.53611779    -0.93070
O2864       O  0.83966868  0.67403048  0.64369562    -0.93420
O2865       O  0.80799742  0.64614036  0.60099907    -0.92210
C2866       C  0.87274771  0.70927474  0.51870115     1.16850
H2867       H  0.84016362  0.73304341  0.64184813     0.32790
H2868       H  0.76340939  0.68507982  0.57080906     0.43650
H2869       H  0.83839450  0.75655035  0.51680845     0.37170
H2870       H  0.75994771  0.80057363  0.58764351     0.33650
H2871       H  0.76852327  0.65334010  0.64850905     0.25440
H2872       H  0.69037587  0.76376697  0.56314985     0.31380
H2873       H  0.76253175  0.83135220  0.00857980     0.37290
H2874       H  0.83196576  0.66055674  0.65842896     0.31750
H2875       H  0.90368317  0.71551784  0.59269508     0.30620
H2876       H  0.90495295  0.77173202  0.56645789     0.32300
H2877       H  0.84271625  0.80721387  0.00304438     0.31270
H2878       H  0.80551590  0.64676024  0.57861856     0.35270
H2879       H  0.79821659  0.65456371  0.50999515     0.28000
H2880       H  0.79311372  0.80165935  0.68822749     0.32240
H2881       H  0.79810481  0.85324273  0.54143796     0.35090
H2882       H  0.88242677  0.70533445  0.61662568     0.27700
H2883       H  0.80039835  0.67248743  0.47999899     0.40570
H2884       H  0.71276502  0.72044831  0.62975446     0.30620
H2885       H  0.74813616  0.67691442  0.63803557     0.38240
H2886       H  0.84978334  0.81877944  0.03561455     0.30090
H2887       H  0.71124509  0.78671281  0.55325453     0.30150
H2888       H  0.79346973  0.82631906  0.66465750     0.30420
Zr2889     Zr  0.62085264  0.42194920  0.57145066     2.17510
O2890       O  0.61388732  0.45643701  0.53135419    -0.51940
O2891       O  0.58615882  0.44626365  0.60156641    -0.75140
O2892       O  0.58310184  0.40920083  0.53727002    -0.81930
O2893       O  0.68638076  0.45963806  0.60225842    -0.83670
O2894       O  0.57252038  0.37700117  0.56982629    -0.79290
O2895       O  0.64388281  0.46557654  0.58213777    -0.90930
O2896       O  0.58869426  0.42797081  0.64905982    -0.76890
O2897       O  0.59938451  0.38697709  0.60156927    -0.86380
O2898       O  0.64596088  0.42162147  0.61823917    -0.86070
O2899       O  0.62766417  0.37809097  0.54343617    -0.72830
O2900       O  0.66818194  0.41173417  0.56004436    -0.84970
Zr2901     Zr  0.67751054  0.33060124  0.60505867     2.26420
Zr2902     Zr  0.60735573  0.34277204  0.57519776     2.06270
Zr2903     Zr  0.69292171  0.40908375  0.60753376     2.10050
Zr2904     Zr  0.62365020  0.38831300  0.64785364     1.78760
O2905       O  0.73099451  0.43079002  0.58159100    -0.93770
O2906       O  0.58376402  0.36397187  0.66677421    -0.41580
O2907       O  0.66992878  0.37354347  0.63519491    -0.78210
O2908       O  0.63226986  0.34397089  0.62172054    -0.96900
O2909       O  0.65276292  0.33220980  0.55912620    -0.90200
O2910       O  0.69862251  0.36701936  0.57690534    -0.93040
C2911       C  0.57843435  0.44556280  0.62944606     1.00710
C2912       C  0.66670933  0.47485474  0.59208799     1.13640
C2913       C  0.56993390  0.38682205  0.54341142     1.04420
O2914       O  0.56474433  0.31800436  0.58042723    -0.95200
O2915       O  0.60813377  0.30149653  0.60572020    -0.90940
O2916       O  0.65148443  0.28793077  0.60596898    -0.84090
C2917       C  0.62649015  0.28338893  0.60005774     1.11060
O2918       O  0.65974191  0.39653415  0.98631957    -0.97170
Zr2919     Zr  0.67389914  0.36899969  0.53066447     1.88940
O2920       O  0.71219588  0.30951657  0.56495538    -0.73820
O2921       O  0.60354708  0.31545123  0.52795628    -0.53080
O2922       O  0.65934239  0.33642526  0.49062515    -0.97760
O2923       O  0.71124615  0.39656338  0.51041910    -0.54980
O2924       O  0.71006865  0.33464301  0.52103053    -0.74340
C2925       C  0.71998989  0.31416299  0.53646635     0.98010
O2926       O  0.68140532  0.29727681  0.64704619    -0.63160
O2927       O  0.70550811  0.42568333  0.65823914    -0.57960
O2928       O  0.70542450  0.34925115  0.64352383    -0.94640
O2929       O  0.73289610  0.37958108  0.62292312    -0.93070
O2930       O  0.64144538  0.41973147  0.68721737    -0.93420
O2931       O  0.63042980  0.36611111  0.69713339    -0.92210
C2932       C  0.72902903  0.35580390  0.63601110     1.16850
H2933       H  0.64449165  0.43921358  0.62946918     0.32790
H2934       H  0.62728981  0.33113118  0.63769696     0.43650
H2935       H  0.71755760  0.36320928  0.57276846     0.37170
H2936       H  0.61905709  0.37830349  0.52381944     0.33650
H2937       H  0.57406700  0.37827649  0.67940555     0.25440
H2938       H  0.58403482  0.31141627  0.52522270     0.31380
H2939       H  0.67441717  0.33686171  0.97508070     0.37290
H2940       H  0.62516330  0.42790104  0.69731878     0.31750
H2941       H  0.72271830  0.43592661  0.65516601     0.30620
H2942       H  0.74289923  0.43764014  0.59822241     0.32300
H2943       H  0.71854324  0.38511339  0.49322851     0.31270
H2944       H  0.64558634  0.35255416  0.69373079     0.35270
H2945       H  0.69772896  0.30177861  0.65913964     0.28000
H2946       H  0.59547894  0.46436827  0.53494786     0.32240
H2947       H  0.67103869  0.38958583  0.96911110     0.35090
H2948       H  0.69203422  0.44069236  0.66316837     0.27700
H2949       H  0.66619538  0.30226589  0.66090908     0.40570
H2950       H  0.55745813  0.32447801  0.60036571     0.30620
H2951       H  0.57204221  0.36136974  0.64864921     0.38240
H2952       H  0.72554275  0.39558277  0.52623893     0.30090
H2953       H  0.60816261  0.32855525  0.51138507     0.30150
H2954       H  0.61234866  0.44530856  0.51222010     0.30420
Zr2955     Zr  0.62550302  0.06110273  0.57989473     2.17510
O2956       O  0.61978508  0.02950850  0.62290402    -0.51940
O2957       O  0.59004250  0.03725608  0.54935165    -0.75140
O2958       O  0.59217171  0.07132541  0.61985598    -0.81930
O2959       O  0.68626396  0.02162462  0.54149997    -0.83670
O2960       O  0.57476705  0.10476450  0.59172742    -0.79290
O2961       O  0.64970121  0.01802159  0.57302884    -0.90930
O2962       O  0.59053320  0.05601597  0.00200021    -0.76890
O2963       O  0.60163545  0.09483012  0.54993542    -0.86380
O2964       O  0.64838033  0.06111022  0.53164350    -0.86070
O2965       O  0.63206476  0.10511815  0.60691804    -0.72830
O2966       O  0.67323426  0.07077731  0.58827468    -0.84970
Zr2967     Zr  0.67651521  0.15252934  0.54250804     2.26420
Zr2968     Zr  0.60812556  0.13872117  0.57655452     2.06270
Zr2969     Zr  0.69568829  0.07316562  0.53936455     2.10050
Zr2970     Zr  0.62488533  0.09423327  0.00261104     1.78760
O2971       O  0.73486040  0.05122729  0.56369605    -0.93770
O2972       O  0.58450014  0.11799096  0.98305189    -0.41580
O2973       O  0.67107476  0.10903807  0.01305020    -0.78210
O2974       O  0.63094204  0.13795344  0.52901394    -0.96900
O2975       O  0.65413235  0.15071295  0.58984901    -0.90200
O2976       O  0.70059834  0.11629565  0.56873097    -0.93040
C2977       C  0.58118829  0.03846541  0.52167392     1.00710
C2978       C  0.66799819  0.00732549  0.55575081     1.13640
C2979       C  0.57655877  0.09283409  0.61747051     1.04420
O2980       O  0.56234641  0.15713651  0.56913997    -0.95200
O2981       O  0.60154956  0.18231935  0.54973036    -0.90940
O2982       O  0.64392889  0.18971234  0.53251909    -0.84090
C2983       C  0.61910598  0.19737484  0.53619214     1.11060
O2984       O  0.67093641  0.08297263  0.65946646    -0.97170
Zr2985     Zr  0.67859580  0.11407186  0.61642258     1.88940
O2986       O  0.70979773  0.17660548  0.58182502    -0.73820
O2987       O  0.60506469  0.16706622  0.62301882    -0.53080
O2988       O  0.66365319  0.14280842  0.65975541    -0.97760
O2989       O  0.72027302  0.09009635  0.63224762    -0.54980
O2990       O  0.71200904  0.15032116  0.62485427    -0.74340
C2991       C  0.71933257  0.17178577  0.60961311     0.98010
O2992       O  0.68163960  0.18756487  0.00234040    -0.63160
O2993       O  0.70809987  0.05704848  0.98844151    -0.57960
O2994       O  0.70498689  0.13604824  0.00298452    -0.94640
O2995       O  0.73360503  0.10495304  0.02172866    -0.93070
O2996       O  0.64180432  0.06197099  0.96322688    -0.93420
O2997       O  0.63153814  0.11709870  0.95370212    -0.92210
C2998       C  0.72898374  0.12914806  0.00922474     1.16850
H2999       H  0.64603580  0.04351716  0.52070446     0.32790
H3000       H  0.62271695  0.14986479  0.01406916     0.43650
H3001       H  0.71940564  0.12111943  0.57183965     0.37170
H3002       H  0.62473153  0.10610469  0.62714750     0.33650
H3003       H  0.57668286  0.10445816  0.96817605     0.25440
H3004       H  0.61475922  0.18469848  0.61805417     0.31380
H3005       H  0.67965303  0.14403469  0.67335332     0.37290
H3006       H  0.62543238  0.05606382  0.95181216     0.31750
H3007       H  0.72507858  0.04602733  0.99127116     0.30620
H3008       H  0.74334953  0.03948396  0.54744392     0.32300
H3009       H  0.72708056  0.10124799  0.64981737     0.31270
H3010       H  0.64401463  0.13289447  0.95820837     0.35270
H3011       H  0.69948718  0.18507712  0.99252748     0.28000
H3012       H  0.63828791  0.02641567  0.63113416     0.32240
H3013       H  0.68174815  0.09086131  0.67650504     0.35090
H3014       H  0.69431197  0.04271947  0.98312977     0.27700
H3015       H  0.66897644  0.18154055  0.98599867     0.40570
H3016       H  0.55543705  0.14672256  0.55108909     0.30620
H3017       H  0.57157720  0.11813944  0.00033165     0.38240
H3018       H  0.73353835  0.09354691  0.61578731     0.30090
H3019       H  0.58577307  0.17294908  0.62424683     0.30150
H3020       H  0.61456360  0.01110031  0.61399548     0.30420
Zr3021     Zr  0.95868516  0.06306111  0.79813206     2.17510
O3022       O  0.96305816  0.05330621  0.74287007    -0.51940
O3023       O  0.98620032  0.03345572  0.83313220    -0.75140
O3024       O  0.00239652  0.06978661  0.77328967    -0.81930
O3025       O  0.89579693  0.02767495  0.83277710    -0.83670
O3026       O  0.00570894  0.10326605  0.80675239    -0.79290
O3027       O  0.92073473  0.03269703  0.79187241    -0.90930
O3028       O  0.99011700  0.05895316  0.87702503    -0.76890
O3029       O  0.97966824  0.09795397  0.82956288    -0.86380
O3030       O  0.93349841  0.06547735  0.84548631    -0.86070
O3031       O  0.95353755  0.10659839  0.77098023    -0.72830
O3032       O  0.91123108  0.07413723  0.78876782    -0.84970
Zr3033     Zr  0.90396888  0.15577478  0.82835283     2.26420
Zr3034     Zr  0.97395769  0.14105923  0.80316943     2.06270
Zr3035     Zr  0.88616965  0.07885135  0.83620678     2.10050
Zr3036     Zr  0.95550801  0.09910010  0.87548444     1.78760
O3037       O  0.84622177  0.06162279  0.80943817    -0.93770
O3038       O  0.99551113  0.12381082  0.89401107    -0.41580
O3039       O  0.91001847  0.11526959  0.86191951    -0.78210
O3040       O  0.94792062  0.14342358  0.84927382    -0.96900
O3041       O  0.92962259  0.15170255  0.78372093    -0.90200
O3042       O  0.88132564  0.11832295  0.80281144    -0.93040
C3043       C  0.99664379  0.03733609  0.85980063     1.00710
C3044       C  0.91335820  0.01763646  0.81383291     1.13640
C3045       C  0.01320365  0.09295969  0.78148268     1.04420
O3046       O  0.01403877  0.16962221  0.81047968    -0.95200
O3047       O  0.97120847  0.18250568  0.83179889    -0.90940
O3048       O  0.93107187  0.19659487  0.81548012    -0.84090
C3049       C  0.95611163  0.20102780  0.82050448     1.11060
O3050       O  0.92357763  0.09099858  0.71067381    -0.97170
Zr3051     Zr  0.90707423  0.11458196  0.75684694     1.88940
O3052       O  0.86786737  0.17184280  0.79194668    -0.73820
O3053       O  0.98796039  0.16173420  0.75514012    -0.53080
O3054       O  0.91839270  0.15036778  0.71938982    -0.97760
O3055       O  0.87442856  0.08229724  0.73402810    -0.54980
O3056       O  0.86846954  0.14567089  0.74840706    -0.74340
C3057       C  0.85890878  0.16589442  0.76478248     0.98010
O3058       O  0.88736736  0.19921874  0.85172337    -0.63160
O3059       O  0.86954847  0.05906197  0.88361641    -0.57960
O3060       O  0.88051165  0.14948438  0.87392551    -0.94640
O3061       O  0.85303287  0.11381381  0.86136192    -0.93070
O3062       O  0.93529252  0.06921420  0.91413585    -0.93420
O3063       O  0.94970079  0.12076340  0.92561811    -0.92210
C3064       C  0.85729301  0.13854761  0.87372585     1.16850
H3065       H  0.93516279  0.04799504  0.85652601     0.32790
H3066       H  0.95177327  0.15661293  0.86566798     0.43650
H3067       H  0.86214132  0.12136153  0.79960512     0.37170
H3068       H  0.96341682  0.10589972  0.75214966     0.33650
H3069       H  0.00650833  0.10911845  0.90431630     0.25440
H3070       H  0.97204867  0.16017211  0.74148919     0.31380
H3071       H  0.90399214  0.14928757  0.70368552     0.37290
H3072       H  0.94662557  0.05182583  0.91423972     0.31750
H3073       H  0.85552387  0.04537058  0.87720038     0.30620
H3074       H  0.83069580  0.06932712  0.82130175     0.32300
H3075       H  0.86457406  0.09374311  0.71874794     0.31270
H3076       H  0.93486770  0.13477321  0.92285356     0.35270
H3077       H  0.90362808  0.20786943  0.86108715     0.28000
H3078       H  0.97649370  0.03861840  0.73692955     0.32240
H3079       H  0.91233427  0.09842622  0.69379467     0.35090
H3080       H  0.88473462  0.04720599  0.89117704     0.27700
H3081       H  0.88249196  0.21181776  0.83464053     0.40570
H3082       H  0.01974483  0.16570474  0.83169594     0.30620
H3083       H  0.00594974  0.12828041  0.87541599     0.38240
H3084       H  0.86091159  0.07913678  0.75030399     0.30090
H3085       H  0.99006561  0.18219715  0.75922440     0.30150
H3086       H  0.94522243  0.04665337  0.73551232     0.30420
Zr3087     Zr  0.94910355  0.43567331  0.84583359     2.17510
O3088       O  0.95825499  0.47997279  0.87218774    -0.51940
O3089       O  0.98441810  0.45924788  0.81588684    -0.75140
O3090       O  0.97862832  0.43179831  0.89081495    -0.81930
O3091       O  0.87778534  0.45840943  0.81046330    -0.83670
O3092       O  0.00276807  0.39633634  0.87178795    -0.79290
O3093       O  0.91695801  0.47180719  0.83392834    -0.90930
O3094       O  0.99135016  0.43374053  0.77284660    -0.76890
O3095       O  0.97736091  0.40070343  0.82370552    -0.86380
O3096       O  0.92923181  0.42730075  0.79672845    -0.86070
O3097       O  0.94334037  0.39631555  0.88029097    -0.72830
O3098       O  0.90213755  0.42100783  0.85205464    -0.84970
Zr3099     Zr  0.91020804  0.33422909  0.82047442     2.26420
Zr3100     Zr  0.97156102  0.36078545  0.85660469     2.06270
Zr3101     Zr  0.88408375  0.40790771  0.80235413     2.10050
Zr3102     Zr  0.95835794  0.39366752  0.77466168     1.78760
O3103       O  0.83730176  0.41961461  0.81563877    -0.93770
O3104       O  0.00091772  0.37008415  0.76117714    -0.41580
O3105       O  0.91397667  0.37226054  0.78327042    -0.78210
O3106       O  0.95347841  0.35346738  0.80641052    -0.96900
O3107       O  0.92677800  0.34507059  0.86912108    -0.90200
O3108       O  0.88027335  0.37025027  0.83795232    -0.93040
C3109       C  0.99689226  0.45505049  0.79048657     1.00710
C3110       C  0.89340208  0.47684585  0.82278622     1.13640
C3111       C  0.99667472  0.41243730  0.89389879     1.04420
O3112       O  0.01729648  0.34557290  0.87114059    -0.95200
O3113       O  0.98894636  0.32136266  0.82980278    -0.90940
O3114       O  0.94888440  0.30046034  0.81893706    -0.84090
C3115       C  0.97517961  0.30119621  0.81892228     1.11060
O3116       O  0.90127235  0.41411957  0.93065990    -0.97170
Zr3117     Zr  0.89728835  0.38243726  0.88680911     1.88940
O3118       O  0.87741992  0.31328451  0.85885304    -0.73820
O3119       O  0.95844076  0.32985300  0.89842608    -0.53080
O3120       O  0.90813702  0.35832781  0.93420977    -0.97760
O3121       O  0.85403222  0.40707008  0.89375452    -0.54980
O3122       O  0.86477375  0.34510627  0.89512360    -0.74340
C3123       C  0.86271157  0.32082236  0.88240933     0.98010
O3124       O  0.89912931  0.28828908  0.79871729    -0.63160
O3125       O  0.87932769  0.42392784  0.75002278    -0.57960
O3126       O  0.87728185  0.32961797  0.78198964    -0.94640
O3127       O  0.85481391  0.37137773  0.77684737    -0.93070
O3128       O  0.94098193  0.42074257  0.73181529    -0.93420
O3129       O  0.95718936  0.36634257  0.72737486    -0.92210
C3130       C  0.85752070  0.34434085  0.77222930     1.16850
H3131       H  0.92901717  0.44428148  0.78467566     0.32790
H3132       H  0.96229441  0.34117244  0.79185945     0.43650
H3133       H  0.86171993  0.36387169  0.83879743     0.37170
H3134       H  0.94826881  0.39876630  0.90141654     0.33650
H3135       H  0.00900975  0.38201602  0.74522166     0.25440
H3136       H  0.97385990  0.31676104  0.90191651     0.31380
H3137       H  0.89089120  0.35769713  0.94576860     0.37290
H3138       H  0.95731081  0.42883439  0.72219660     0.31750
H3139       H  0.85949998  0.42600409  0.74694511     0.30620
H3140       H  0.82873361  0.42509459  0.79613206     0.32300
H3141       H  0.84518869  0.39747894  0.91102750     0.31270
H3142       H  0.94747759  0.34882986  0.73269836     0.35270
H3143       H  0.91236476  0.28534876  0.78198947     0.28000
H3144       H  0.97800500  0.48321400  0.87018238     0.32240
H3145       H  0.88509220  0.41072870  0.94345057     0.35090
H3146       H  0.88614474  0.44355164  0.75025060     0.27700
H3147       H  0.90408998  0.27428122  0.81444013     0.40570
H3148       H  0.01541938  0.32757238  0.88218066     0.30620
H3149       H  0.01272261  0.37288076  0.77919962     0.38240
H3150       H  0.84304796  0.40163687  0.87578312     0.30090
H3151       H  0.95689041  0.34151471  0.91718966     0.30150
H3152       H  0.95540189  0.47631672  0.89409421     0.30420
Zr3153     Zr  0.76064020  0.22630516  0.99794889     2.17510
O3154       O  0.71758797  0.23187080  0.02299173    -0.51940
O3155       O  0.78252007  0.22723239  0.54676928    -0.75140
O3156       O  0.74511998  0.17651950  0.50785965    -0.81930
O3157       O  0.75498184  0.30487081  0.99558945    -0.83670
O3158       O  0.76791778  0.14240273  0.98141140    -0.79290
O3159       O  0.73980815  0.26787110  0.52390067    -0.90930
O3160       O  0.82670510  0.23960898  0.54180741    -0.76890
O3161       O  0.79942505  0.19656579  0.99272966    -0.86380
O3162       O  0.79772133  0.25825424  0.99536102    -0.86070
O3163       O  0.75257980  0.20078362  0.95118336    -0.72830
O3164       O  0.75188280  0.25696514  0.95525530    -0.84970
Zr3165     Zr  0.82347051  0.23123585  0.90192888     2.26420
Zr3166     Zr  0.79230867  0.17098413  0.94566812     2.06270
Zr3167     Zr  0.78949822  0.28892685  0.95385509     2.10050
Zr3168     Zr  0.83666286  0.22833043  0.48981761     1.78760
O3169       O  0.76264979  0.32362485  0.92610812    -0.93770
O3170       O  0.85418049  0.18884735  0.51950279    -0.41580
O3171       O  0.82871470  0.25876517  0.94775232    -0.78210
O3172       O  0.83112427  0.20092894  0.94422772    -0.96900
O3173       O  0.78565291  0.20074478  0.90235820    -0.90200
O3174       O  0.78494174  0.26217278  0.90754034    -0.93040
C3175       C  0.80490552  0.23688940  0.55707521     1.00710
C3176       C  0.74008045  0.29453925  0.51820551     1.13640
C3177       C  0.74962067  0.15021837  0.50021118     1.04420
O3178       O  0.82207624  0.13500332  0.96719411    -0.95200
O3179       O  0.82008876  0.14692594  0.90764155    -0.90940
O3180       O  0.83918892  0.18411407  0.88329913    -0.84090
C3181       C  0.83653619  0.15722952  0.88824049     1.11060
O3182       O  0.69930196  0.22611668  0.92038852    -0.97170
Zr3183     Zr  0.74722502  0.23133758  0.90780743     1.88940
O3184       O  0.80513443  0.23732968  0.85116422    -0.73820
O3185       O  0.76175698  0.14097643  0.91630550    -0.53080
O3186       O  0.72832347  0.19140526  0.87971959    -0.97760
O3187       O  0.71987775  0.27217174  0.89303297    -0.54980
O3188       O  0.75905555  0.24018676  0.85425314    -0.74340
C3189       C  0.78152170  0.24118606  0.83929301     0.98010
O3190       O  0.87275556  0.23342371  0.89895354    -0.63160
O3191       O  0.81203300  0.32667624  0.98193903    -0.57960
O3192       O  0.84318546  0.27506538  0.88493218    -0.94640
O3193       O  0.82686036  0.30796740  0.91900673    -0.93070
O3194       O  0.86701599  0.26709076  0.50239356    -0.93420
O3195       O  0.88419196  0.22105324  0.47598336    -0.92210
C3196       C  0.84275027  0.30017376  0.89627010     1.16850
H3197       H  0.79830902  0.27057446  0.51299288     0.32790
H3198       H  0.84725335  0.18953562  0.94110227     0.43650
H3199       H  0.78381227  0.27521613  0.89078651     0.37170
H3200       H  0.73647119  0.18941798  0.95280737     0.33650
H3201       H  0.86730075  0.19748108  0.53385233     0.25440
H3202       H  0.76715051  0.12141516  0.92158882     0.31380
H3203       H  0.74306697  0.18483534  0.86597524     0.37290
H3204       H  0.87497580  0.26204590  0.52236205     0.31750
H3205       H  0.79952544  0.34309618  0.98034005     0.30620
H3206       H  0.77531310  0.33936897  0.92244747     0.32300
H3207       H  0.71180389  0.26682062  0.87315461     0.31270
H3208       H  0.88642052  0.20043129  0.97233891     0.35270
H3209       H  0.87815735  0.24796171  0.91411921     0.28000
H3210       H  0.71562153  0.21321023  0.53287418     0.32240
H3211       H  0.68962495  0.22510488  0.90063215     0.35090
H3212       H  0.81071878  0.32108088  0.50372258     0.27700
H3213       H  0.87904328  0.21555543  0.90827920     0.40570
H3214       H  0.83656301  0.14580517  0.47753819     0.30620
H3215       H  0.83887783  0.18296316  0.53255047     0.38240
H3216       H  0.73320475  0.28694532  0.88799423     0.30090
H3217       H  0.74365832  0.14366276  0.92575810     0.30150
H3218       H  0.70402543  0.23263541  0.00637812     0.30420
Zr3219     Zr  0.75988053  0.25912357  0.64712689     2.17510
O3220       O  0.71595455  0.25418224  0.62371602    -0.51940
O3221       O  0.78184648  0.25539810  0.59838003    -0.75140
O3222       O  0.74454705  0.30844628  0.63670384    -0.81930
O3223       O  0.75317327  0.18170244  0.65043801    -0.83670
O3224       O  0.76917692  0.34233721  0.66090305    -0.79290
O3225       O  0.73868020  0.21824639  0.62115122    -0.90930
O3226       O  0.82652726  0.24402997  0.60345702    -0.76890
O3227       O  0.79955767  0.28716890  0.65123652    -0.86380
O3228       O  0.79629370  0.22586303  0.65058541    -0.86070
O3229       O  0.75294985  0.28634435  0.69323557    -0.72830
O3230       O  0.74995599  0.23041751  0.69086862    -0.84970
Zr3231     Zr  0.82171159  0.25431380  0.74305366     2.26420
Zr3232     Zr  0.79345903  0.31447073  0.69749044     2.06270
Zr3233     Zr  0.78670566  0.19690898  0.69283536     2.10050
Zr3234     Zr  0.83613736  0.25391024  0.65566569     1.78760
O3235       O  0.75830904  0.16493893  0.72171280    -0.93770
O3236       O  0.85667455  0.29353418  0.62942133    -0.41580
O3237       O  0.82696259  0.22501254  0.69845808    -0.78210
O3238       O  0.83135683  0.28281760  0.70014818    -0.96900
O3239       O  0.78512452  0.28675238  0.74193430    -0.90200
O3240       O  0.78268170  0.22483089  0.73851510    -0.93040
C3241       C  0.80466361  0.24631458  0.58816629     1.00710
C3242       C  0.73879891  0.19175026  0.62752615     1.13640
C3243       C  0.74993689  0.33457587  0.64347552     1.04420
O3244       O  0.82339926  0.34893318  0.67448893    -0.95200
O3245       O  0.82308295  0.33767147  0.73414456    -0.90940
O3246       O  0.83834944  0.30018098  0.76145468    -0.84090
C3247       C  0.83775901  0.32684209  0.75515190     1.11060
O3248       O  0.69850585  0.26549803  0.72480620    -0.97170
Zr3249     Zr  0.74613664  0.25756757  0.73768133     1.88940
O3250       O  0.80460271  0.25065928  0.79412184    -0.73820
O3251       O  0.76453840  0.34726890  0.72614620    -0.53080
O3252       O  0.72883645  0.29905128  0.76501703    -0.97760
O3253       O  0.71707108  0.21906037  0.75382671    -0.54980
O3254       O  0.75859256  0.24865345  0.79144189    -0.74340
C3255       C  0.78121354  0.24735826  0.80625425     0.98010
O3256       O  0.87045904  0.25199180  0.75108585    -0.63160
O3257       O  0.80737000  0.15619609  0.66724447    -0.57960
O3258       O  0.83780495  0.21007777  0.76221556    -0.94640
O3259       O  0.82370693  0.17722856  0.72722908    -0.93070
O3260       O  0.86448365  0.21422761  0.63921520    -0.93420
O3261       O  0.88347693  0.25416808  0.67191062    -0.92210
C3262       C  0.83822756  0.18515525  0.75074762     1.16850
H3263       H  0.79705243  0.21323779  0.63320772     0.32790
H3264       H  0.84786443  0.29332646  0.70317527     0.43650
H3265       H  0.78126308  0.21223733  0.75561683     0.37170
H3266       H  0.73722439  0.29852740  0.69148313     0.33650
H3267       H  0.87118456  0.28484481  0.61673132     0.25440
H3268       H  0.77007889  0.36626211  0.71934575     0.31380
H3269       H  0.74346810  0.30434750  0.77939509     0.37290
H3270       H  0.85288390  0.19745017  0.64192232     0.31750
H3271       H  0.79356014  0.14117584  0.66856830     0.30620
H3272       H  0.77101374  0.15020392  0.72913658     0.32300
H3273       H  0.70945945  0.22542324  0.77364569     0.31270
H3274       H  0.88753451  0.27412973  0.67693270     0.35270
H3275       H  0.87680822  0.23716145  0.73661243     0.28000
H3276       H  0.71242415  0.27265922  0.61418530     0.32240
H3277       H  0.68885737  0.26767090  0.74449608     0.35090
H3278       H  0.80774092  0.16126837  0.64541315     0.27700
H3279       H  0.87764669  0.26962793  0.74236383     0.40570
H3280       H  0.82725392  0.34128710  0.65384891     0.30620
H3281       H  0.84281677  0.29985338  0.61456348     0.38240
H3282       H  0.72975079  0.20352165  0.75912491     0.30090
H3283       H  0.74608369  0.34477704  0.71765078     0.30150
H3284       H  0.70332624  0.25266309  0.64115659     0.30420
Zr3285     Zr  0.47382216  0.08234267  0.69931982     2.17510
O3286       O  0.51256330  0.06798491  0.66883379    -0.51940
O3287       O  0.49600327  0.04508791  0.72768667    -0.75140
O3288       O  0.50527174  0.11390763  0.72440017    -0.81930
O3289       O  0.43590603  0.02845343  0.67535735    -0.83670
O3290       O  0.49690643  0.15889408  0.71683983    -0.79290
O3291       O  0.46475037  0.05626697  0.65236930    -0.90930
O3292       O  0.47601310  0.04473334  0.77420021    -0.76890
O3293       O  0.46750400  0.10664522  0.74676452    -0.86380
O3294       O  0.44042857  0.05456498  0.72397462    -0.86070
O3295       O  0.45995870  0.13070187  0.68777965    -0.72830
O3296       O  0.43386987  0.08630540  0.66886787    -0.84970
Zr3297     Zr  0.37842843  0.12822456  0.72692365     2.26420
Zr3298     Zr  0.45075513  0.15408984  0.73663823     2.06270
Zr3299     Zr  0.40006871  0.05910074  0.69333604     2.10050
Zr3300     Zr  0.43569773  0.07772161  0.77152242     1.78760
O3301       O  0.37296321  0.06313207  0.64681407    -0.93770
O3302       O  0.46247015  0.09544330  0.81421786    -0.41580
O3303       O  0.39505033  0.08216251  0.74094438    -0.78210
O3304       O  0.41803780  0.12468842  0.76103103    -0.96900
O3305       O  0.41218816  0.15609522  0.70325259    -0.90200
O3306       O  0.38573446  0.10621124  0.67970601    -0.93040
C3307       C  0.49444690  0.03611197  0.75503522     1.00710
C3308       C  0.44765119  0.03608748  0.65118470     1.13640
C3309       C  0.51224555  0.13728675  0.71299493     1.04420
O3310       O  0.46583012  0.15700019  0.78939727    -0.95200
O3311       O  0.41484175  0.19066571  0.74728806    -0.90940
O3312       O  0.38323238  0.16211362  0.76546112    -0.84090
C3313       C  0.39140451  0.18643551  0.75946586     1.11060
O3314       O  0.45202893  0.12151064  0.61442723    -0.97170
Zr3315     Zr  0.42080295  0.13291514  0.65598128     1.88940
O3316       O  0.35794677  0.16301637  0.68789954    -0.73820
O3317       O  0.46611608  0.20297476  0.73772126    -0.53080
O3318       O  0.44153612  0.17742750  0.64169668    -0.97760
O3319       O  0.39632155  0.11712643  0.61063454    -0.54980
O3320       O  0.38623714  0.16793041  0.64737210    -0.74340
C3321       C  0.36448073  0.17436048  0.66161836     0.98010
O3322       O  0.33909562  0.13063007  0.76057596    -0.63160
O3323       O  0.37957775  0.01213802  0.69501985    -0.57960
O3324       O  0.34209997  0.09355781  0.72403450    -0.94640
O3325       O  0.36430804  0.05219445  0.72904570    -0.93070
O3326       O  0.41466901  0.03390823  0.78754586    -0.93420
O3327       O  0.40890868  0.08210931  0.81802710    -0.92210
C3328       C  0.34257054  0.06668642  0.72792356     1.16850
H3329       H  0.44541760  0.03503164  0.72722106     0.32790
H3330       H  0.41501440  0.13193220  0.78140926     0.43650
H3331       H  0.36888087  0.10797699  0.66867540     0.37170
H3332       H  0.47354283  0.13960361  0.67556387     0.33650
H3333       H  0.46435205  0.07913075  0.82805561     0.25440
H3334       H  0.48366530  0.20281034  0.74872821     0.31380
H3335       H  0.43383135  0.18193582  0.62145404     0.37290
H3336       H  0.42782662  0.02542512  0.80194721     0.31750
H3337       H  0.36579867  0.01137379  0.67862565     0.30620
H3338       H  0.35387043  0.06536786  0.65331165     0.32300
H3339       H  0.39799565  0.13284609  0.59603721     0.31270
H3340       H  0.39087081  0.08886503  0.81109118     0.35270
H3341       H  0.34593706  0.12139016  0.77924378     0.28000
H3342       H  0.52802110  0.06819449  0.68316384     0.32240
H3343       H  0.44872033  0.13595666  0.59865686     0.35090
H3344       H  0.39381825  0.99829330  0.68898859     0.27700
H3345       H  0.33635266  0.15035627  0.76724995     0.40570
H3346       H  0.48583739  0.15510579  0.78820855     0.30620
H3347       H  0.48094460  0.09802585  0.80586052     0.38240
H3348       H  0.37689343  0.11738335  0.61638453     0.30090
H3349       H  0.47072762  0.20747658  0.71636072     0.30150
H3350       H  0.51525121  0.08388812  0.65482254     0.30420
Zr3351     Zr  0.10354684  0.08747612  0.71422115     2.17510
O3352       O  0.06894465  0.06764081  0.74688177    -0.51940
O3353       O  0.07792435  0.05036955  0.68896446    -0.75140
O3354       O  0.07524677  0.12001862  0.68544392    -0.81930
O3355       O  0.14070100  0.04069435  0.75522697    -0.83670
O3356       O  0.08647896  0.16472576  0.69197183    -0.79290
O3357       O  0.11806413  0.07989658  0.76650999    -0.90930
O3358       O  0.09889589  0.04260271  0.64384977    -0.76890
O3359       O  0.11131536  0.10828478  0.66625140    -0.86380
O3360       O  0.13279861  0.05240393  0.69228494    -0.86070
O3361       O  0.11952181  0.13413595  0.72695062    -0.72830
O3362       O  0.14990317  0.09630056  0.72064640    -0.84970
Zr3363     Zr  0.20164442  0.11935608  0.69190158     2.26420
Zr3364     Zr  0.13289044  0.15335569  0.67737750     2.06270
Zr3365     Zr  0.17414711  0.05338869  0.72022933     2.10050
Zr3366     Zr  0.14094359  0.07373422  0.64440605     1.78760
O3367       O  0.20016211  0.03852769  0.76426407    -0.93770
O3368       O  0.11461707  0.09224028  0.60182334    -0.41580
O3369       O  0.18348196  0.07452049  0.67317050    -0.78210
O3370       O  0.16357507  0.11873870  0.65617928    -0.96900
O3371       O  0.17066454  0.15315889  0.71237365    -0.90200
O3372       O  0.19140589  0.09772386  0.73893930    -0.93040
C3373       C  0.07921728  0.03790423  0.66298128     1.00710
C3374       C  0.13293860  0.05903803  0.77443127     1.13640
C3375       C  0.06923849  0.14493882  0.69440874     1.04420
O3376       O  0.11325236  0.16193164  0.62733622    -0.95200
O3377       O  0.16801767  0.18096734  0.65035651    -0.90940
O3378       O  0.20821114  0.16040860  0.66317705    -0.84090
C3379       C  0.19421848  0.17928917  0.64983642     1.11060
O3380       O  0.13769732  0.11541601  0.80549325    -0.97170
Zr3381     Zr  0.15920251  0.13159619  0.75878679     1.88940
O3382       O  0.22370366  0.15365169  0.72958813    -0.73820
O3383       O  0.12938654  0.20339145  0.69063369    -0.53080
O3384       O  0.13247381  0.17236260  0.77601454    -0.97760
O3385       O  0.19000732  0.12157209  0.80111933    -0.54980
O3386       O  0.19131621  0.16954299  0.76210732    -0.74340
C3387       C  0.21544011  0.17036952  0.75171013     0.98010
O3388       O  0.24016718  0.11307643  0.65756158    -0.63160
O3389       O  0.17242942  0.00411067  0.70363875    -0.57960
O3390       O  0.23642288  0.08581242  0.70608237    -0.94640
O3391       O  0.21749821  0.04301864  0.69933440    -0.93070
O3392       O  0.15976819  0.02851470  0.62742614    -0.93420
O3393       O  0.16536433  0.07496925  0.59618008    -0.92210
C3394       C  0.23763536  0.05880313  0.70452963     1.16850
H3395       H  0.12576559  0.03344463  0.69153185     0.32790
H3396       H  0.17004834  0.12576903  0.63693261     0.43650
H3397       H  0.20719414  0.09533938  0.75171738     0.37170
H3398       H  0.10615889  0.14528405  0.73756030     0.33650
H3399       H  0.11104754  0.07555328  0.58867334     0.25440
H3400       H  0.11466884  0.21092496  0.67756402     0.31380
H3401       H  0.14297870  0.18050936  0.79316200     0.37290
H3402       H  0.14490059  0.01945778  0.61582408     0.31750
H3403       H  0.15596703  0.99642409  0.71335835     0.30620
H3404       H  0.19952850  0.01762361  0.76343039     0.32300
H3405       H  0.18697802  0.13723230  0.81590043     0.31270
H3406       H  0.18383474  0.08131583  0.60173313     0.35270
H3407       H  0.23626175  0.12377859  0.63877054     0.28000
H3408       H  0.05154630  0.06961739  0.73600924     0.32240
H3409       H  0.13611661  0.13230981  0.81888306     0.35090
H3410       H  0.16805258  0.00471887  0.68165193     0.27700
H3411       H  0.25530895  0.12300223  0.66768763     0.40570
H3412       H  0.09455039  0.15453096  0.62859363     0.30620
H3413       H  0.09661695  0.09722394  0.61046800     0.38240
H3414       H  0.20863225  0.12471714  0.79350022     0.30090
H3415       H  0.12182565  0.20390308  0.71154211     0.30150
H3416       H  0.06758803  0.07958001  0.76532967     0.30420
Zr3417     Zr  0.48556904  0.39708357  0.96550106     2.17510
O3418       O  0.52859944  0.41698966  0.48199401    -0.51940
O3419       O  0.50688897  0.43395332  0.93428767    -0.75140
O3420       O  0.51280994  0.36265952  0.93741117    -0.81930
O3421       O  0.45505421  0.45141578  0.00979877    -0.83670
O3422       O  0.49959936  0.31870378  0.94345014    -0.79290
O3423       O  0.48308956  0.41484826  0.01850645    -0.90930
O3424       O  0.47981839  0.44130292  0.89318065    -0.76890
O3425       O  0.47113811  0.37650547  0.91808226    -0.86380
O3426       O  0.45410770  0.43078015  0.94558332    -0.86070
O3427       O  0.46860463  0.34930326  0.97678794    -0.72830
O3428       O  0.44959274  0.39582269  0.00329291    -0.84970
Zr3429     Zr  0.38515987  0.36443775  0.94847126     2.26420
Zr3430     Zr  0.45228939  0.33016825  0.92806292     2.06270
Zr3431     Zr  0.41915033  0.42954167  0.98148798     2.10050
Zr3432     Zr  0.43914660  0.40991659  0.89908916     1.78760
O3433       O  0.39571798  0.43576365  0.52952051    -0.93770
O3434       O  0.46244991  0.39331298  0.85316709    -0.41580
O3435       O  0.40077138  0.41142219  0.93471314    -0.78210
O3436       O  0.41914029  0.36350135  0.90835998    -0.96900
O3437       O  0.41617466  0.32909991  0.96569479    -0.90200
O3438       O  0.42337636  0.38083965  0.97136286    -0.93040
C3439       C  0.50152462  0.44650922  0.90902948     1.00710
C3440       C  0.47050464  0.43734269  0.02753875     1.13640
C3441       C  0.51759887  0.33794715  0.94706738     1.04420
O3442       O  0.47156109  0.32473166  0.87722279    -0.95200
O3443       O  0.41405038  0.30375923  0.90351391    -0.90940
O3444       O  0.37477811  0.32620374  0.91696042    -0.84090
C3445       C  0.38782886  0.30682279  0.90308695     1.11060
O3446       O  0.44713403  0.35970804  0.56365481    -0.97170
Zr3447     Zr  0.43160164  0.35002279  0.01189682     1.88940
O3448       O  0.36299676  0.33274707  0.98718029    -0.73820
O3449       O  0.45786769  0.27923857  0.93357983    -0.53080
O3450       O  0.46044042  0.31090014  0.52846487    -0.97760
O3451       O  0.39375921  0.37322636  0.53808600    -0.54980
O3452       O  0.39536034  0.31639547  0.01910414    -0.74340
C3453       C  0.37099009  0.31635810  0.00918642     0.98010
O3454       O  0.34767121  0.37593813  0.91443513    -0.63160
O3455       O  0.42032904  0.47798561  0.96319884    -0.57960
O3456       O  0.35885190  0.39162305  0.98487487    -0.94640
O3457       O  0.37163235  0.43640732  0.97790612    -0.93070
O3458       O  0.41754691  0.45489701  0.88693090    -0.93420
O3459       O  0.41066358  0.40860329  0.85372274    -0.92210
C3460       C  0.35374655  0.41804491  0.98319003     1.16850
H3461       H  0.46042628  0.44997222  0.94440199     0.32790
H3462       H  0.41157534  0.35678515  0.88935601     0.43650
H3463       H  0.43697548  0.37895149  0.95580168     0.37170
H3464       H  0.48155482  0.33788882  0.98718905     0.33650
H3465       H  0.46507814  0.41048890  0.84082481     0.25440
H3466       H  0.47331069  0.27402277  0.92015254     0.31380
H3467       H  0.44821739  0.29865698  0.54030648     0.37290
H3468       H  0.43060518  0.46440695  0.87337392     0.31750
H3469       H  0.40548956  0.47902383  0.94801739     0.30620
H3470       H  0.39151874  0.45614658  0.03008132     0.32300
H3471       H  0.38695363  0.35937084  0.55294868     0.31270
H3472       H  0.39252870  0.40313998  0.86125697     0.35270
H3473       H  0.34088553  0.39459500  0.92161041     0.28000
H3474       H  0.54270090  0.40792140  0.46916822     0.32240
H3475       H  0.43674082  0.34656508  0.57652650     0.35090
H3476       H  0.41372433  0.48955286  0.98064763     0.27700
H3477       H  0.35642638  0.37985822  0.89463393     0.40570
H3478       H  0.49091810  0.32976186  0.87963302     0.30620
H3479       H  0.48097787  0.38804966  0.85993874     0.38240
H3480       H  0.40238969  0.38778804  0.55104475     0.30090
H3481       H  0.46482002  0.27664496  0.95455259     0.30150
H3482       H  0.53168948  0.41066251  0.50303995     0.30420
Zr3483     Zr  0.10956005  0.41531226  0.94487699     2.17510
O3484       O  0.07586570  0.40607328  0.90555026    -0.51940
O3485       O  0.08842217  0.45435807  0.97351685    -0.75140
O3486       O  0.08623708  0.39596433  0.98794439    -0.81930
O3487       O  0.14756150  0.42907545  0.89454127    -0.83670
O3488       O  0.07880347  0.35100561  0.98455434    -0.79290
O3489       O  0.11473450  0.45590352  0.91080397    -0.90930
O3490       O  0.11136833  0.45420304  0.51837598    -0.76890
O3491       O  0.11878854  0.39518662  0.99355622    -0.86380
O3492       O  0.14822663  0.44093970  0.96195826    -0.86070
O3493       O  0.11750076  0.36417081  0.93942910    -0.72830
O3494       O  0.14636301  0.40204069  0.91195888    -0.84970
Zr3495     Zr  0.20062190  0.36299637  0.96858347     2.26420
Zr3496     Zr  0.12884677  0.34482276  0.98946596     2.06270
Zr3497     Zr  0.18498788  0.42774417  0.92831721     2.10050
Zr3498     Zr  0.15352422  0.42319171  0.51225764     1.78760
O3499       O  0.20539460  0.44897702  0.88355860    -0.93770
O3500       O  0.13413210  0.40841478  0.56055499    -0.41580
O3501       O  0.19128289  0.41180534  0.97834254    -0.78210
O3502       O  0.16530754  0.37317554  0.50673991    -0.96900
O3503       O  0.16354793  0.33494318  0.95271077    -0.90200
O3504       O  0.19308311  0.37879668  0.91913612    -0.93040
C3505       C  0.09128689  0.46295609  0.00127864     1.00710
C3506       C  0.13518146  0.45237436  0.89338256     1.13640
C3507       C  0.06951991  0.37634190  0.98301497     1.04420
O3508       O  0.11646754  0.33953095  0.54256670    -0.95200
O3509       O  0.16565176  0.30945308  0.50628644    -0.90940
O3510       O  0.20231976  0.33644501  0.51294172    -0.84090
C3511       C  0.19104364  0.31286700  0.51414162     1.11060
O3512       O  0.11653209  0.35726150  0.86662497    -0.97170
Zr3513     Zr  0.15316909  0.35300917  0.90372622     1.88940
O3514       O  0.21935900  0.32820325  0.92928147    -0.73820
O3515       O  0.10930761  0.29867035  0.97874826    -0.53080
O3516       O  0.13058394  0.30746396  0.90058757    -0.97760
O3517       O  0.16850689  0.36439819  0.85246536    -0.54980
O3518       O  0.18868380  0.31888671  0.89216874    -0.74340
C3519       C  0.21187939  0.31494962  0.90451581     0.98010
O3520       O  0.24658294  0.34875819  0.47890101    -0.63160
O3521       O  0.19266536  0.47376980  0.95104498    -0.57960
O3522       O  0.23056213  0.40137723  0.97870356    -0.94640
O3523       O  0.23350184  0.42230738  0.93400307    -0.93070
O3524       O  0.17012055  0.47045276  0.52364610    -0.93420
O3525       O  0.18851573  0.42447120  0.55145953    -0.92210
C3526       C  0.24370323  0.41606151  0.95973802     1.16850
H3527       H  0.14450951  0.46096817  0.96256452     0.32790
H3528       H  0.16962990  0.36764367  0.52730549     0.43650
H3529       H  0.20846211  0.37583319  0.90579247     0.37170
H3530       H  0.10112882  0.35543187  0.93191435     0.33650
H3531       H  0.13322489  0.42592833  0.57306401     0.25440
H3532       H  0.09452115  0.29667246  0.99383699     0.31380
H3533       H  0.13786702  0.29833395  0.88186913     0.37290
H3534       H  0.16054862  0.47620287  0.54258535     0.31750
H3535       H  0.20963124  0.48028267  0.94155117     0.30620
H3536       H  0.21842805  0.46305608  0.89142188     0.32300
H3537       H  0.17139923  0.34590924  0.84214991     0.31270
H3538       H  0.20318416  0.41200448  0.54349450     0.35270
H3539       H  0.24957460  0.35302378  0.50078418     0.28000
H3540       H  0.06423694  0.42313515  0.90493866     0.32240
H3541       H  0.11859853  0.34076962  0.85272999     0.35090
H3542       H  0.19807419  0.46967661  0.97226808     0.27700
H3543       H  0.24417469  0.32811696  0.47782002     0.40570
H3544       H  0.09960976  0.35088697  0.54496547     0.30620
H3545       H  0.11494122  0.40412119  0.55582922     0.38240
H3546       H  0.18698033  0.37210552  0.85513746     0.30090
H3547       H  0.09990920  0.30088819  0.95895824     0.30150
H3548       H  0.06434508  0.39061860  0.91296815     0.30420
Zr3549     Zr  0.29866117  0.27767817  0.87500621     2.17510
O3550       O  0.30404877  0.32468534  0.89756426    -0.51940
O3551       O  0.29526677  0.25366872  0.92303702    -0.75140
O3552       O  0.25666369  0.29762793  0.89536752    -0.81930
O3553       O  0.37931697  0.27371902  0.86329246    -0.83670
O3554       O  0.22305307  0.27873177  0.86605176    -0.79290
O3555       O  0.34415739  0.29194377  0.89071987    -0.90930
O3556       O  0.29633741  0.20589160  0.91837844    -0.76890
O3557       O  0.27105443  0.23673260  0.87024587    -0.86380
O3558       O  0.32943839  0.23929137  0.86890719    -0.86070
O3559       O  0.26971869  0.28626106  0.83177716    -0.72830
O3560       O  0.32399521  0.28921750  0.83041066    -0.84970
Zr3561     Zr  0.29966544  0.21623449  0.77559502     2.26420
Zr3562     Zr  0.24250391  0.24434282  0.82668391     2.06270
Zr3563     Zr  0.35449089  0.24995000  0.82365092     2.10050
Zr3564     Zr  0.30216110  0.19830139  0.86368673     1.78760
O3565       O  0.38566788  0.28545622  0.80486794    -0.93770
O3566       O  0.26539183  0.16703751  0.87810804    -0.41580
O3567       O  0.32833917  0.20740003  0.81854393    -0.78210
O3568       O  0.27352709  0.20486409  0.82024516    -0.96900
O3569       O  0.26832961  0.25457920  0.78175730    -0.90200
O3570       O  0.32628692  0.25763829  0.77979511    -0.93040
C3571       C  0.29431752  0.22874322  0.93418870     1.00710
C3572       C  0.36972523  0.28898358  0.88485185     1.13640
C3573       C  0.23158712  0.29540865  0.88794227     1.04420
O3574       O  0.20930767  0.21678950  0.85444391    -0.95200
O3575       O  0.22484343  0.20867928  0.78802971    -0.90940
O3576       O  0.25968734  0.18914519  0.76083824    -0.84090
C3577       C  0.23440818  0.19100161  0.76748075     1.11060
O3578       O  0.29666197  0.34461843  0.80568440    -0.97170
Zr3579     Zr  0.29522821  0.29599093  0.78682463     1.88940
O3580       O  0.29267662  0.24059605  0.72921679    -0.73820
O3581       O  0.20641738  0.26932651  0.79990575    -0.53080
O3582       O  0.25394986  0.32161066  0.77304624    -0.97760
O3583       O  0.33213991  0.32148789  0.76263821    -0.54980
O3584       O  0.28893498  0.28810504  0.73252621    -0.74340
C3585       C  0.28896156  0.26478155  0.71752766     0.98010
O3586       O  0.30683763  0.18009052  0.73596193    -0.63160
O3587       O  0.38703137  0.21473905  0.84157853    -0.57960
O3588       O  0.34655215  0.20084582  0.76570611    -0.94640
O3589       O  0.37958325  0.23023840  0.78187234    -0.93070
O3590       O  0.34231995  0.17777990  0.88748815    -0.93420
O3591       O  0.30979909  0.14993227  0.84591941    -0.92210
C3592       C  0.37166676  0.20817513  0.76802808     1.16850
H3593       H  0.34123976  0.23732654  0.88635637     0.32790
H3594       H  0.26383984  0.18736942  0.81766694     0.43650
H3595       H  0.33712885  0.26023956  0.76171583     0.37170
H3596       H  0.25844178  0.30273508  0.83541256     0.33650
H3597       H  0.27246575  0.15649188  0.89584728     0.25440
H3598       H  0.18994647  0.26600324  0.81225009     0.31380
H3599       H  0.25889052  0.33261975  0.75481929     0.37290
H3600       H  0.33514723  0.16426077  0.90250951     0.31750
H3601       H  0.40500920  0.22356091  0.83883100     0.30620
H3602       H  0.40397420  0.27691697  0.80720288     0.32300
H3603       H  0.33805500  0.30947920  0.74523440     0.31270
H3604       H  0.30668645  0.15060885  0.82364042     0.35270
H3605       H  0.29735888  0.16267903  0.74209048     0.28000
H3606       H  0.29689477  0.32357304  0.91860011     0.32240
H3607       H  0.29593378  0.35664285  0.78735201     0.35090
H3608       H  0.38444796  0.21423257  0.86393433     0.27700
H3609       H  0.29691752  0.18674630  0.71773169     0.40570
H3610       H  0.21401302  0.21968899  0.87618052     0.30620
H3611       H  0.25125275  0.17977902  0.88673855     0.38240
H3612       H  0.34732973  0.32037699  0.77736199     0.30090
H3613       H  0.21044950  0.28959646  0.80317825     0.30150
H3614       H  0.29119500  0.33718430  0.88660059     0.30420
Zr3615     Zr  0.28100456  0.21352404  0.62561049     2.17510
O3616       O  0.27553149  0.16605828  0.64540962    -0.51940
O3617       O  0.28291258  0.23891443  0.67328068    -0.75140
O3618       O  0.32047875  0.19388309  0.65127454    -0.81930
O3619       O  0.20206498  0.21254127  0.61008890    -0.83670
O3620       O  0.35515976  0.20997541  0.62222506    -0.79290
O3621       O  0.23646825  0.19824929  0.64079238    -0.90930
O3622       O  0.28393065  0.28664648  0.66941706    -0.76890
O3623       O  0.30897235  0.25404659  0.62308825    -0.86380
O3624       O  0.25059891  0.25213119  0.61960013    -0.86070
O3625       O  0.31063970  0.20349327  0.58332257    -0.72830
O3626       O  0.25658245  0.20233110  0.57996624    -0.84970
Zr3627     Zr  0.28301108  0.27515878  0.52819653     2.26420
Zr3628     Zr  0.33881397  0.24455699  0.58129431     2.06270
Zr3629     Zr  0.22613269  0.24154400  0.57379933     2.10050
Zr3630     Zr  0.27843469  0.29289706  0.61536176     1.78760
O3631       O  0.19695244  0.20920996  0.54571844    -0.93770
O3632       O  0.31440673  0.32524556  0.63025661    -0.41580
O3633       O  0.25286370  0.28393173  0.56990874    -0.78210
O3634       O  0.30875205  0.28479878  0.57386440    -0.96900
O3635       O  0.31377358  0.23633922  0.53479936    -0.90200
O3636       O  0.25536228  0.23433192  0.53030197    -0.93040
C3637       C  0.28474148  0.26385712  0.68471698     1.00710
C3638       C  0.21140346  0.19870589  0.63272846     1.13640
C3639       C  0.34569134  0.19459029  0.64455420     1.04420
O3640       O  0.37185314  0.27127580  0.61078906    -0.95200
O3641       O  0.35987646  0.27884378  0.54484439    -0.90940
O3642       O  0.32595239  0.29956670  0.51775944    -0.84090
C3643       C  0.35112519  0.29684089  0.52471609     1.11060
O3644       O  0.28404454  0.14652432  0.55313209    -0.97170
Zr3645     Zr  0.28605130  0.19556588  0.53669164     1.88940
O3646       O  0.28573356  0.25201500  0.97966719    -0.73820
O3647       O  0.37472568  0.21771222  0.55580386    -0.53080
O3648       O  0.32780296  0.17081864  0.52238076    -0.97760
O3649       O  0.24967008  0.17016284  0.01093900    -0.54980
O3650       O  0.29232292  0.20476244  0.98231851    -0.74340
C3651       C  0.29045609  0.22791488  0.96743472     0.98010
O3652       O  0.28617540  0.31078713  0.48847438    -0.63160
O3653       O  0.19130711  0.27147751  0.59739631    -0.57960
O3654       O  0.23605130  0.29553800  0.52190367    -0.94640
O3655       O  0.20081138  0.26883067  0.53778198    -0.93070
O3656       O  0.23824894  0.31342557  0.63949910    -0.93420
O3657       O  0.27114548  0.34059802  0.59638532    -0.92210
C3658       C  0.21011690  0.29049722  0.52466620     1.16850
H3659       H  0.23856904  0.25403955  0.63689187     0.32790
H3660       H  0.31902782  0.30199234  0.57238150     0.43650
H3661       H  0.24465682  0.23227559  0.51198226     0.37170
H3662       H  0.32135106  0.18673019  0.58727149     0.33650
H3663       H  0.30713071  0.33565377  0.64820114     0.25440
H3664       H  0.39118942  0.22157674  0.56804983     0.31380
H3665       H  0.32321490  0.16043211  0.00336086     0.37290
H3666       H  0.24532446  0.32836163  0.65324273     0.31750
H3667       H  0.17401237  0.26157678  0.59345093     0.30620
H3668       H  0.17824018  0.21518717  0.55116025     0.32300
H3669       H  0.24269698  0.18315289  0.99515482     0.31270
H3670       H  0.27699648  0.33969171  0.57480364     0.35270
H3671       H  0.29287647  0.32881468  0.49722618     0.28000
H3672       H  0.28013701  0.16706105  0.66736327     0.32240
H3673       H  0.28647669  0.13491275  0.53442140     0.35090
H3674       H  0.19414386  0.26978393  0.61963385     0.27700
H3675       H  0.29948992  0.30464157  0.47276820     0.40570
H3676       H  0.36541554  0.27009830  0.63210882     0.30620
H3677       H  0.32890365  0.31292338  0.63859655     0.38240
H3678       H  0.23489843  0.16931572  0.02618746     0.30090
H3679       H  0.37050727  0.19769691  0.55998642     0.30150
H3680       H  0.28991011  0.15419983  0.63584524     0.30420
C3681       C  0.31609232  0.44269666  0.95991175    -0.06380
C3682       C  0.32576178  0.42726612  0.98478009    -0.00460
C3683       C  0.30772453  0.41498518  0.00534960    -0.09030
C3684       C  0.28057710  0.41388311  0.99716091    -0.06410
C3685       C  0.27114760  0.42481335  0.96916987    -0.00470
C3686       C  0.28872426  0.44170247  0.95145561    -0.08940
C3687       C  0.27950487  0.45786026  0.92353753     0.61440
H3688       H  0.33062443  0.45279300  0.94511255     0.12130
H3689       H  0.26728026  0.40259355  0.51257131     0.12150
C3690       C  0.31651031  0.40121888  0.03491479     0.61670
F3691       F  0.29968850  0.47521994  0.91253726    -0.23490
F3692       F  0.25760191  0.47489889  0.93108683    -0.20820
F3693       F  0.27246614  0.43928940  0.90040439    -0.20500
F3694       F  0.34283487  0.40799426  0.04290632    -0.20550
F3695       F  0.29970833  0.41033019  0.05835236    -0.20870
F3696       F  0.31475778  0.37205428  0.53220702    -0.23550
C3697       C  0.27110846  0.04819745  0.74246238    -0.06380
C3698       C  0.26327124  0.04588440  0.71188218    -0.00460
C3699       C  0.28240524  0.04019990  0.68891263    -0.09030
C3700       C  0.30972930  0.04240018  0.69668102    -0.06410
C3701       C  0.31725676  0.05149163  0.72593026    -0.00470
C3702       C  0.29841748  0.05132534  0.74998252    -0.08940
C3703       C  0.30681548  0.05620770  0.78274178     0.61440
H3704       H  0.25567429  0.05151410  0.75977489     0.12130
H3705       H  0.32496577  0.04039249  0.67918313     0.12150
C3706       C  0.27385962  0.03457979  0.65621712     0.61670
F3707       F  0.28592639  0.05020746  0.80272127    -0.23490
F3708       F  0.31398783  0.08402667  0.78701127    -0.20820
F3709       F  0.32870568  0.03892574  0.78967877    -0.20500
F3710       F  0.26089074  0.05811552  0.64450570    -0.20550
F3711       F  0.25626913  0.01197495  0.65530868    -0.20870
F3712       F  0.29588955  0.02814589  0.63776425    -0.23550
C3713       C  0.00792301  0.37631449  0.93211393    -0.06380
C3714       C  0.00778269  0.40503244  0.92392626    -0.00460
C3715       C  0.02130278  0.42464484  0.94227274    -0.09030
C3716       C  0.03793608  0.41396610  0.96553213    -0.06410
C3717       C  0.04282422  0.38466818  0.96940415    -0.00470
C3718       C  0.02515957  0.36562588  0.95486437    -0.08940
C3719       C  0.02532721  0.33433982  0.96182001     0.61440
H3720       H  0.99608273  0.36189685  0.91883463     0.12130
H3721       H  0.04951446  0.42845242  0.97856539     0.12150
C3722       C  0.02028580  0.45604555  0.93502796     0.61670
F3723       F  0.00177577  0.32157195  0.95174671    -0.23490
F3724       F  0.02649184  0.33122097  0.49359627    -0.20820
F3725       F  0.04715177  0.32124896  0.94758781    -0.20500
F3726       F  0.99406542  0.46607736  0.93871701    -0.20550
F3727       F  0.02834051  0.46057884  0.90528125    -0.20870
F3728       F  0.03712918  0.47164048  0.95361714    -0.23550
C3729       C  0.05259986  0.15235239  0.74481540    -0.06380
C3730       C  0.04560365  0.14800300  0.71429871    -0.00460
C3731       C  0.02317206  0.13104276  0.70735502    -0.09030
C3732       C  0.01391875  0.11236208  0.72952144    -0.06410
C3733       C  0.02510412  0.11226163  0.75906215    -0.00470
C3734       C  0.04506390  0.13273729  0.76693363    -0.08940
C3735       C  0.06296226  0.13183368  0.79527641     0.61440
H3736       H  0.06840566  0.16737101  0.75022243     0.12130
H3737       H  0.99836114  0.09738042  0.72347777     0.12150
C3738       C  0.00970462  0.13293397  0.67637975     0.61670
F3739       F  0.08864576  0.12395445  0.78628393    -0.23490
F3740       F  0.05467473  0.11294265  0.81705449    -0.20820
F3741       F  0.06492513  0.15832618  0.80857781    -0.20500
F3742       F  0.02748508  0.12459072  0.65359417    -0.20550
F3743       F  0.00183276  0.16063384  0.67137715    -0.20870
F3744       F  0.98684187  0.11620131  0.67461968    -0.23550
C3745       C  0.99231871  0.23481895  0.82780418    -0.06380
C3746       C  0.96927766  0.22656568  0.81099966    -0.00460
C3747       C  0.96194601  0.24139145  0.78419996    -0.09030
C3748       C  0.97495397  0.26704470  0.77914965    -0.06410
C3749       C  0.98990642  0.27879042  0.80311018    -0.00470
C3750       C  0.00408398  0.26072525  0.82242993    -0.08940
C3751       C  0.02821873  0.27003142  0.84101389     0.61440
H3752       H  0.00028916  0.22191926  0.84610187     0.12130
H3753       H  0.96750166  0.28102880  0.76155228     0.12150
C3754       C  0.93991759  0.23159736  0.76237768     0.61670
F3755       F  0.04884711  0.25016946  0.83803865    -0.23490
F3756       F  0.02096624  0.27233181  0.87138575    -0.20820
F3757       F  0.03791387  0.29574559  0.83118055    -0.20500
F3758       F  0.91516112  0.23194942  0.77699884    -0.20550
F3759       F  0.94534342  0.20451848  0.75215610    -0.20870
F3760       F  0.93790842  0.24885041  0.73714856    -0.23550
C3761       C  0.54501955  0.12897895  0.63796284    -0.06380
C3762       C  0.56352218  0.10699838  0.64439565    -0.00460
C3763       C  0.57024413  0.10182331  0.67549976    -0.09030
C3764       C  0.55603368  0.11707463  0.69831833    -0.06410
C3765       C  0.53537617  0.13664878  0.69140835    -0.00470
C3766       C  0.53225623  0.14510381  0.66074267    -0.08940
C3767       C  0.51659804  0.17092225  0.65001446     0.61440
H3768       H  0.54030547  0.13400946  0.61455507     0.12130
H3769       H  0.55905366  0.11190909  0.72204754     0.12150
C3770       C  0.59076894  0.07949137  0.68533832     0.61670
F3771       F  0.53335006  0.18682173  0.63174163    -0.23490
F3772       F  0.50788396  0.18836880  0.67340435    -0.20820
F3773       F  0.49462351  0.16253698  0.63271049    -0.20500
F3774       F  0.61604166  0.08571018  0.67400920    -0.20550
F3775       F  0.58290771  0.05310449  0.67502610    -0.20870
F3776       F  0.59325373  0.07820628  0.71671814    -0.23550
C3777       C  0.53172534  0.32936251  0.49921997    -0.06380
C3778       C  0.54003072  0.33513118  0.96946304    -0.00460
C3779       C  0.56321675  0.35194094  0.96551921    -0.09030
C3780       C  0.57265085  0.36806198  0.49027572    -0.06410
C3781       C  0.55944458  0.36794636  0.51878439    -0.00470
C3782       C  0.53809394  0.34823859  0.52314704    -0.08940
C3783       C  0.51763358  0.34941669  0.54905634     0.61440
H3784       H  0.51584200  0.31404418  0.50265231     0.12130
H3785       H  0.58930988  0.38232788  0.48632814     0.12150
C3786       C  0.57699393  0.35459042  0.93498190     0.61670
F3787       F  0.49339043  0.35873963  0.53711887    -0.23490
F3788       F  0.52402396  0.36754520  0.57263674    -0.20820
F3789       F  0.51387575  0.32269846  0.56079632    -0.20500
F3790       F  0.57374466  0.38182762  0.92464845    -0.20550
F3791       F  0.56638470  0.33606196  0.91358001    -0.20870
F3792       F  0.60441729  0.34874839  0.93809032    -0.23550
C3793       C  0.59366973  0.25605497  0.56830664    -0.06380
C3794       C  0.62055030  0.26123121  0.57785467    -0.00460
C3795       C  0.64217034  0.25155312  0.55940726    -0.09030
C3796       C  0.63580662  0.24311474  0.52976975    -0.06410
C3797       C  0.61229846  0.22683701  0.52815877    -0.00470
C3798       C  0.58927351  0.23837020  0.54291620    -0.08940
C3799       C  0.56092079  0.23033512  0.53378378     0.61440
H3800       H  0.57655703  0.26475251  0.58081636     0.12130
H3801       H  0.65256010  0.23754595  0.51477704     0.12150
C3802       C  0.66885081  0.24209289  0.57335704     0.61670
F3803       F  0.54630829  0.25446317  0.52659865    -0.23490
F3804       F  0.54832948  0.21688567  0.55770083    -0.20820
F3805       F  0.56122093  0.21244143  0.50862529    -0.20500
F3806       F  0.66631953  0.23779981  0.60438104    -0.20550
F3807       F  0.68842991  0.26175550  0.56746119    -0.20870
F3808       F  0.67715986  0.21664498  0.56153577    -0.23550
C3809       C  0.04979749  0.53143668  0.51721379    -0.06380
C3810       C  0.02287236  0.52150912  0.51492298    -0.00460
C3811       C  0.01916044  0.49195415  0.01720110    -0.09030
C3812       C  0.04231766  0.47353786  0.01731541    -0.06410
C3813       C  0.06915208  0.48333248  0.01342823    -0.00470
C3814       C  0.07298237  0.51285663  0.51624737    -0.08940
C3815       C  0.10142417  0.52460110  0.51832978     0.61440
H3816       H  0.05265473  0.55409674  0.51786406     0.12130
H3817       H  0.03934380  0.45108822  0.01924575     0.12150
C3818       C  0.99082188  0.47977906  0.01823405     0.61670
F3819       F  0.10119381  0.55361706  0.52269657    -0.23490
F3820       F  0.11542598  0.51847608  0.99195796    -0.20820
F3821       F  0.11476196  0.51249563  0.54274895    -0.20500
F3822       F  0.97642460  0.48751806  0.99255787    -0.20550
F3823       F  0.97757272  0.48975326  0.54308167    -0.20870
F3824       F  0.99129483  0.45055394  0.01953124    -0.23550
C3825       C  0.91811547  0.53342142  0.85369934    -0.06380
C3826       C  0.91471026  0.51960228  0.88183451    -0.00460
C3827       C  0.89115191  0.50216689  0.88543309    -0.09030
C3828       C  0.87249581  0.50071220  0.86105589    -0.06410
C3829       C  0.88265901  0.50458660  0.83181571    -0.00470
C3830       C  0.90147492  0.52660289  0.82864611    -0.08940
C3831       C  0.90696691  0.53941458  0.79805170     0.61440
H3832       H  0.93425570  0.54856051  0.85073313     0.12130
H3833       H  0.85440934  0.48799787  0.86319970     0.12150
C3834       C  0.88624917  0.48342873  0.91278484     0.61670
F3835       F  0.90366939  0.56843096  0.80005671    -0.23490
F3836       F  0.88928645  0.52902499  0.77620510    -0.20820
F3837       F  0.93330742  0.53317065  0.78918332    -0.20500
F3838       F  0.87717149  0.49939630  0.93707308    -0.20550
F3839       F  0.90988228  0.46931219  0.92057740    -0.20870
F3840       F  0.86678484  0.46323524  0.90679093    -0.23550
C3841       C  0.51199665  0.49813790  0.90388192    -0.06380
C3842       C  0.52069817  0.46997617  0.89961965    -0.00460
C3843       C  0.54835318  0.46560509  0.89074290    -0.09030
C3844       C  0.56664857  0.48882892  0.89026354    -0.06410
C3845       C  0.55840649  0.51665442  0.89751827    -0.00470
C3846       C  0.53008185  0.52138766  0.90241208    -0.08940
C3847       C  0.51876826  0.55103362  0.90658955     0.61440
H3848       H  0.49095804  0.50184627  0.91005033     0.12130
H3849       H  0.58795460  0.48485641  0.88554612     0.12150
C3850       C  0.55977075  0.43713809  0.88100026     0.61670
F3851       F  0.49101594  0.55193002  0.90161815    -0.23490
F3852       F  0.53081666  0.56910775  0.88612457    -0.20820
F3853       F  0.52366491  0.56038913  0.93588852    -0.20500
F3854       F  0.56849569  0.43875585  0.85110414    -0.20550
F3855       F  0.54104867  0.41562710  0.88273084    -0.20870
F3856       F  0.58179160  0.43050099  0.89917315    -0.23550
C3857       C  0.63548609  0.53133365  0.56162942    -0.06380
C3858       C  0.64148107  0.51910942  0.53295244    -0.00460
C3859       C  0.66515973  0.50147825  0.53044529    -0.09030
C3860       C  0.68357290  0.50188744  0.55481682    -0.06410
C3861       C  0.67220098  0.50398947  0.58372712    -0.00470
C3862       C  0.65048842  0.52332569  0.58746204    -0.08940
C3863       C  0.64144236  0.53317637  0.61850773     0.61440
H3864       H  0.61862583  0.54603664  0.56422310     0.12130
H3865       H  0.70228621  0.48971882  0.55236423     0.12150
C3866       C  0.67063314  0.47899377  0.50606983     0.61670
F3867       F  0.64305654  0.56230586  0.62035126    -0.23490
F3868       F  0.65741926  0.52153356  0.64120031    -0.20820
F3869       F  0.61487418  0.52529023  0.62296912    -0.20500
F3870       F  0.69354174  0.48577841  0.48980558    -0.20550
F3871       F  0.65052997  0.47461178  0.98745070    -0.20870
F3872       F  0.67565124  0.45344428  0.52004161    -0.23550
C3873       C  0.77677002  0.56224974  0.90780517    -0.06380
C3874       C  0.76283386  0.54560505  0.92854320    -0.00460
C3875       C  0.77730526  0.53242472  0.95208993    -0.09030
C3876       C  0.80192737  0.54411143  0.96066601    -0.06410
C3877       C  0.81255044  0.56731240  0.94497214    -0.00470
C3878       C  0.80039867  0.57593850  0.91714233    -0.08940
C3879       C  0.81093922  0.60007209  0.89815942     0.61440
H3880       H  0.76572398  0.56975121  0.88807738     0.12130
H3881       H  0.81103315  0.53990994  0.48498836     0.12150
C3882       C  0.76685125  0.50740521  0.96959250     0.61670
F3883       F  0.79646062  0.60341262  0.87136272    -0.23490
F3884       F  0.83752276  0.59490166  0.89046963    -0.20820
F3885       F  0.80902581  0.62507353  0.91452561    -0.20500
F3886       F  0.74320848  0.49690181  0.95711184    -0.20550
F3887       F  0.76223101  0.51513356  0.99962054    -0.20870
F3888       F  0.78451737  0.48910095  0.47461413    -0.23550
C3889       C  0.00905578  0.00198512  0.66524637    -0.06380
C3890       C  0.01548258  0.97327814  0.66089309    -0.00460
C3891       C  0.04195402  0.96676592  0.64973738    -0.09030
C3892       C  0.06247823  0.98803346  0.64941357    -0.06410
C3893       C  0.05658244  0.01657588  0.65664161    -0.00470
C3894       C  0.02865197  0.02364161  0.66167795    -0.08940
C3895       C  0.01919417  0.05413889  0.66137603     0.61440
H3896       H  0.98842744  0.00743167  0.67170097     0.12130
H3897       H  0.08321818  0.98239561  0.64368285     0.12150
C3898       C  0.04750775  0.93793357  0.63605436     0.61670
F3899       F  0.99114761  0.05641081  0.66116343    -0.23490
F3900       F  0.02894849  0.06707105  0.63550061    -0.20820
F3901       F  0.02864376  0.06816009  0.68672102    -0.20500
F3902       F  0.03045407  0.93373553  0.61141359    -0.20550
F3903       F  0.04243840  0.91746956  0.65731064    -0.20870
F3904       F  0.07403505  0.93516191  0.62600244    -0.23550
C3905       C  0.96907091  0.96184591  0.82070818    -0.06380
C3906       C  0.95259680  0.93892538  0.82611444    -0.00460
C3907       C  0.92920881  0.94482179  0.84373895    -0.09030
C3908       C  0.91710449  0.97173530  0.84070788    -0.06410
C3909       C  0.92855133  0.99123187  0.82028676    -0.00470
C3910       C  0.95532745  0.98515575  0.80840403    -0.08940
C3911       C  0.96593986  0.99407984  0.77741543     0.61440
H3912       H  0.98972792  0.95735537  0.81336968     0.12130
H3913       H  0.89776111  0.97617327  0.85158681     0.12150
C3914       C  0.91397701  0.92157284  0.85924522     0.61670
F3915       F  0.97941719  0.97215735  0.76273008    -0.23490
F3916       F  0.98432974  0.01541178  0.78090199    -0.20820
F3917       F  0.94535078  0.00152739  0.75798816    -0.20500
F3918       F  0.92836291  0.89632130  0.85775590    -0.20550
F3919       F  0.88908598  0.91788421  0.84519451    -0.20870
F3920       F  0.90983964  0.92876258  0.88950298    -0.23550
C3921       C  0.56352726  0.99932004  0.76481231    -0.06380
C3922       C  0.55689004  0.97094438  0.75873071    -0.00460
C3923       C  0.52886294  0.96378686  0.75800864    -0.09030
C3924       C  0.50868494  0.98536157  0.76010280    -0.06410
C3925       C  0.51538944  0.01400367  0.76339255    -0.00470
C3926       C  0.54324927  0.02087330  0.76729002    -0.08940
C3927       C  0.55135085  0.05119209  0.77348349     0.61440
H3928       H  0.58480604  0.00480173  0.76583944     0.12130
H3929       H  0.48748543  0.98013182  0.75708907     0.12150
C3930       C  0.52028852  0.93332339  0.75433539     0.61670
F3931       F  0.57901838  0.05367562  0.77820967    -0.23490
F3932       F  0.53806194  0.06111711  0.79926484    -0.20820
F3933       F  0.54420158  0.06783725  0.74905833    -0.20500
F3934       F  0.53364653  0.91687544  0.77560410    -0.20550
F3935       F  0.52669941  0.92380398  0.72539119    -0.20870
F3936       F  0.49263331  0.93015590  0.75857764    -0.23550
C3937       C  0.63784643  0.96791288  0.55089769    -0.06380
C3938       C  0.66541677  0.97632818  0.55287404    -0.00460
C3939       C  0.68225332  0.96067054  0.57228933    -0.09030
C3940       C  0.67004929  0.94672043  0.59671469    -0.06410
C3941       C  0.64177741  0.94819054  0.60111711    -0.00470
C3942       C  0.62515566  0.95645660  0.57688579    -0.08940
C3943       C  0.59466268  0.95483589  0.58006212     0.61440
H3944       H  0.62526693  0.97749357  0.53353983     0.12130
H3945       H  0.68258067  0.93635165  0.61344474     0.12150
C3946       C  0.71276702  0.96239836  0.57050183     0.61670
F3947       F  0.58174542  0.96545850  0.55512090    -0.23490
F3948       F  0.58572678  0.97003766  0.60524258    -0.20820
F3949       F  0.58728491  0.92701741  0.58315767    -0.20500
F3950       F  0.72243478  0.97815459  0.59480649    -0.20550
F3951       F  0.72092571  0.97485193  0.54363865    -0.20870
F3952       F  0.72387966  0.93547724  0.57157046    -0.23550
C3953       C  0.77164368  0.94965580  0.69066367    -0.06380
C3954       C  0.76001866  0.94291602  0.71876651    -0.00460
C3955       C  0.77629936  0.93820442  0.74451357    -0.09030
C3956       C  0.80375549  0.93359247  0.73977829    -0.06410
C3957       C  0.81447834  0.93442113  0.71037903    -0.00470
C3958       C  0.79927796  0.94494448  0.68579668    -0.08940
C3959       C  0.81159312  0.94888431  0.65449395     0.61440
H3960       H  0.75852750  0.95416406  0.67148420     0.12130
H3961       H  0.81632585  0.92688474  0.75870051     0.12150
C3962       C  0.76539444  0.93581799  0.77660017     0.61670
F3963       F  0.79332067  0.96121648  0.63452757    -0.23490
F3964       F  0.81945245  0.92302538  0.64248781    -0.20820
F3965       F  0.83403194  0.96613514  0.65671757    -0.20500
F3966       F  0.77089457  0.90909635  0.78766681    -0.20550
F3967       F  0.73772985  0.94089283  0.77807029    -0.20870
F3968       F  0.77819830  0.95546227  0.79506010    -0.23550
C3969       C  0.01434984  0.50553148  0.78895981    -0.06380
C3970       C  0.01885987  0.47657479  0.78196581    -0.00460
C3971       C  0.04496945  0.46910637  0.77011894    -0.09030
C3972       C  0.06536166  0.49025461  0.76696543    -0.06090
C3973       C  0.06096575  0.51907074  0.77452359    -0.00470
C3974       C  0.03466896  0.52666509  0.78547633    -0.08940
C3975       C  0.02857033  0.55690841  0.79516470     0.61440
H3976       H  0.99468740  0.51149744  0.79811180     0.12130
H3977       H  0.08552464  0.48418381  0.75942124     0.12150
C3978       C  0.05185631  0.43862294  0.76212681     0.61670
F3979       F  0.00213637  0.56030381  0.80537059    -0.23490
F3980       F  0.03227743  0.57467601  0.77070889    -0.20820
F3981       F  0.04582351  0.56476865  0.81854707    -0.20500
F3982       F  0.03580263  0.42976551  0.73809348    -0.20550
F3983       F  0.04737656  0.42161593  0.78706918    -0.20870
F3984       F  0.07873425  0.43526775  0.75349370    -0.23550
C3985       C  0.04792289  0.60704359  0.95084472    -0.06380
C3986       C  0.02968915  0.62704972  0.93888066    -0.00460
C3987       C  0.02795381  0.63030918  0.90686906    -0.09030
C3988       C  0.04042793  0.60987769  0.88838796    -0.06410
C3989       C  0.05989869  0.59112491  0.90008009    -0.00470
C3990       C  0.06416184  0.59013644  0.93176487    -0.08940
C3991       C  0.08567398  0.57159880  0.94599115     0.61440
H3992       H  0.04932763  0.60444083  0.97534027     0.12130
H3993       H  0.03834392  0.61164307  0.86390013     0.12150
C3994       C  0.01598707  0.65563081  0.89040583     0.61670
F3995       F  0.07343917  0.55427067  0.96658322    -0.23490
F3996       F  0.10462988  0.58822119  0.96076253    -0.20820
F3997       F  0.09881113  0.55445643  0.92501541    -0.20500
F3998       F  0.00524716  0.67597689  0.90960845    -0.20550
F3999       F  0.99613776  0.64673880  0.87031984    -0.20870
F4000       F  0.03626625  0.66831092  0.87373682    -0.23550
C4001       C  0.15007576  0.46324060  0.84266265    -0.06380
C4002       C  0.14718899  0.47280209  0.87297821    -0.00460
C4003       C  0.16274761  0.49609398  0.88338762    -0.09030
C4004       C  0.18206800  0.50720720  0.86365666    -0.06410
C4005       C  0.18337234  0.49902975  0.83290098    -0.00470
C4006       C  0.16726072  0.47663375  0.82210784    -0.08940
C4007       C  0.16673786  0.46689833  0.78911421     0.61440
H4008       H  0.13858130  0.44506459  0.83491633     0.12130
H4009       H  0.19339596  0.52558686  0.87116155     0.12150
C4010       C  0.15634606  0.51381348  0.91155179     0.61670
F4011       F  0.17176235  0.43810059  0.78762644    -0.23490
F4012       F  0.18600823  0.48016502  0.77151233    -0.20820
F4013       F  0.14133300  0.47237239  0.77696846    -0.20500
F4014       F  0.17967182  0.51952223  0.92773752    -0.20550
F4015       F  0.13766580  0.50155699  0.93051985    -0.20870
F4016       F  0.14597119  0.53951398  0.90234894    -0.23550
C4017       C  0.04506868  0.02303206  0.87639897    -0.06380
C4018       C  0.01807438  0.01540855  0.86996885    -0.00460
C4019       C  0.01267587  0.98596531  0.87098925    -0.09030
C4020       C  0.03437914  0.96588017  0.86690648    -0.06410
C4021       C  0.06193910  0.97382816  0.86876805    -0.00470
C4022       C  0.06632716  0.00233532  0.87912177    -0.08940
C4023       C  0.09198141  0.01157644  0.89517089     0.61440
H4024       H  0.04960206  0.04519190  0.87991866     0.12130
H4025       H  0.02982259  0.94365304  0.86415446     0.12150
C4026       C  0.98717603  0.97655612  0.88710704     0.61670
F4027       F  0.10280836  0.03479647  0.88091486    -0.23490
F4028       F  0.11133504  0.99030161  0.89652533    -0.20820
F4029       F  0.08545767  0.01940593  0.92473376    -0.20500
F4030       F  0.96460938  0.99128875  0.87713787    -0.20550
F4031       F  0.99013564  0.98192705  0.91794659    -0.20870
F4032       F  0.98294663  0.94787354  0.88322680    -0.23550
C4033       C  0.13657771  0.00998210  0.83526185    -0.06380
C4034       C  0.16497957  0.00908884  0.83789158    -0.00460
C4035       C  0.17966360  0.03352693  0.83087492    -0.09030
C4036       C  0.16602549  0.05548719  0.81546365    -0.06410
C4037       C  0.13886231  0.05247643  0.80610936    -0.00470
C4038       C  0.12315358  0.03103461  0.81846341    -0.08940
C4039       C  0.09324979  0.02899228  0.80957936     0.61440
H4040       H  0.12571392  0.99210609  0.84278696     0.12130
H4041       H  0.17774719  0.07225222  0.80572917     0.12150
C4042       C  0.20984897  0.03504814  0.83720267     0.61670
F4043       F  0.08107641  0.00585062  0.82138413    -0.23490
F4044       F  0.09005887  0.02645707  0.77845058    -0.20820
F4045       F  0.07953508  0.05290283  0.81973068    -0.20500
F4046       F  0.22364009  0.01463777  0.82039345    -0.20550
F4047       F  0.21441268  0.03044538  0.86785733    -0.20870
F4048       F  0.22021853  0.06123470  0.82990667    -0.23550
C4049       C  0.05318970  0.88553444  0.75317496    -0.06380
C4050       C  0.07146038  0.89410573  0.73105112    -0.00460
C4051       C  0.06971752  0.88259523  0.70110763    -0.09030
C4052       C  0.04725240  0.86572555  0.69355827    -0.06410
C4053       C  0.02849176  0.85802302  0.71592385    -0.00470
C4054       C  0.03268790  0.86638393  0.74676733    -0.08940
C4055       C  0.01582433  0.85534590  0.77324136     0.61440
H4056       H  0.05591568  0.89303225  0.77642158     0.12130
H4057       H  0.04428298  0.85844958  0.67033427     0.12150
C4058       C  0.09202210  0.88724041  0.67777882     0.61670
F4059       F  0.02741542  0.86087757  0.80130128    -0.23490
F4060       F  0.01277738  0.82640681  0.77041461    -0.20820
F4061       F  0.99085834  0.86838705  0.77378975    -0.20500
F4062       F  0.11469689  0.87121560  0.68491013    -0.20550
F4063       F  0.09905800  0.91547809  0.67755189    -0.20870
F4064       F  0.08388596  0.87941686  0.64872981    -0.23550
C4065       C  0.09327539  0.73784677  0.81912135    -0.06380
C4066       C  0.11736631  0.72583166  0.83050372    -0.00460
C4067       C  0.13084116  0.73847141  0.85569474    -0.09030
C4068       C  0.12130556  0.76474180  0.86555298    -0.06410
C4069       C  0.10646749  0.78002341  0.84438431    -0.00470
C4070       C  0.08676783  0.76544928  0.82777316    -0.08940
C4071       C  0.05981512  0.77867020  0.81992255     0.61440
H4072       H  0.08020665  0.72618617  0.80370594     0.12130
H4073       H  0.13234202  0.77639104  0.88288144     0.12150
C4074       C  0.15660246  0.72661034  0.86973999     0.61670
F4075       F  0.03918451  0.76170897  0.83051097    -0.23490
F4076       F  0.05747098  0.78131739  0.78870974    -0.20820
F4077       F  0.05705270  0.80506215  0.83352180    -0.20500
F4078       F  0.17805966  0.72999537  0.84977333    -0.20550
F4079       F  0.15406917  0.69842032  0.87658371    -0.20870
F4080       F  0.16234884  0.74057074  0.89656533    -0.23550
C4081       C  0.51222993  0.87930718  0.66318158    -0.06380
C4082       C  0.52476113  0.88031974  0.63428532    -0.00460
C4083       C  0.54722098  0.86186568  0.62810921    -0.09030
C4084       C  0.55539677  0.84296362  0.65071778    -0.06410
C4085       C  0.54650402  0.84645750  0.68065453    -0.00470
C4086       C  0.52271317  0.86221346  0.68643026    -0.08940
C4087       C  0.50813155  0.85948755  0.71668350     0.61440
H4088       H  0.49465540  0.89246818  0.66790005     0.12130
H4089       H  0.57236890  0.82884578  0.64618150     0.12150
C4090       C  0.56702951  0.86457980  0.60167530     0.61670
F4091       F  0.48473380  0.87589110  0.71777389    -0.23490
F4092       F  0.52469876  0.86750485  0.74057399    -0.20820
F4093       F  0.50096283  0.83156647  0.72061259    -0.20500
F4094       F  0.55809662  0.88153564  0.57835468    -0.20550
F4095       F  0.57343202  0.83823916  0.58958062    -0.20870
F4096       F  0.59058743  0.87603751  0.61305467    -0.23550
C4097       C  0.43795112  0.01034257  0.56993747    -0.06380
C4098       C  0.41111574  0.00036195  0.57248868    -0.00460
C4099       C  0.39475356  0.01028224  0.59636962    -0.09030
C4100       C  0.40803185  0.02043633  0.62205279    -0.06410
C4101       C  0.43569783  0.02712004  0.62196568    -0.00470
C4102       C  0.45056126  0.02432823  0.59473933    -0.08940
C4103       C  0.47997802  0.03338013  0.59336085     0.61440
H4104       H  0.44999867  0.00344412  0.55058908     0.12130
H4105       H  0.39689630  0.02147928  0.64287778     0.12150
C4106       C  0.36523813  0.00167461  0.59912912     0.61670
F4107       F  0.49219880  0.02394006  0.56722729    -0.23490
F4108       F  0.49472413  0.02244067  0.61741458    -0.20820
F4109       F  0.48131563  0.06255904  0.59418226    -0.20500
F4110       F  0.36333300  0.97802862  0.61730222    -0.20550
F4111       F  0.35423685  0.99568062  0.57080647    -0.20870
F4112       F  0.35007324  0.02331502  0.61206624    -0.23550
C4113       C  0.56508401  0.99007180  0.50450998    -0.06380
C4114       C  0.55869131  0.01823106  0.51257637    -0.00460
C4115       C  0.53078603  0.02564898  0.51454007    -0.09030
C4116       C  0.51081493  0.00400389  0.51333954    -0.06410
C4117       C  0.51775441  0.97505774  0.51182237    -0.00470
C4118       C  0.54525161  0.96820675  0.50480552    -0.08940
C4119       C  0.55400825  0.93777110  0.99929197     0.61440
H4120       H  0.58632301  0.98482137  0.00057260     0.12130
H4121       H  0.48950822  0.00946795  0.51523487     0.12150
C4122       C  0.52236197  0.05637259  0.51844443     0.61670
F4123       F  0.58161912  0.93532744  0.99385514    -0.23490
F4124       F  0.54047383  0.92719527  0.97411640    -0.20820
F4125       F  0.54778795  0.92162301  0.52441699    -0.20500
F4126       F  0.53266154  0.07194433  0.49465396    -0.20550
F4127       F  0.53240979  0.06692504  0.54566785    -0.20870
F4128       F  0.49441188  0.05973518  0.51851516    -0.23550
C4129       C  0.50885420  0.48358403  0.63129052    -0.06380
C4130       C  0.51593870  0.51205511  0.63689441    -0.00460
C4131       C  0.54300020  0.51717064  0.64671854    -0.09030
C4132       C  0.56243781  0.49445937  0.64707263    -0.06410
C4133       C  0.55591805  0.46657819  0.63808522    -0.00470
C4134       C  0.52821588  0.46097695  0.63171219    -0.08940
C4135       C  0.51940517  0.43097910  0.62487547     0.61440
H4136       H  0.48800613  0.47926186  0.62525628     0.12130
H4137       H  0.58325172  0.49853075  0.65332024     0.12150
C4138       C  0.55139870  0.54676638  0.65587907     0.61670
F4139       F  0.49154585  0.42903217  0.62175769    -0.23490
F4140       F  0.52730985  0.41357223  0.64847540    -0.20820
F4141       F  0.53140168  0.42146833  0.59819170    -0.20500
F4142       F  0.53526095  0.55624953  0.67971886    -0.20550
F4143       F  0.54834318  0.56476629  0.63143772    -0.20870
F4144       F  0.57815802  0.54764801  0.66540997    -0.23550
C4145       C  0.51368270  0.61213853  0.99344177    -0.06380
C4146       C  0.52525696  0.60960348  0.52236466    -0.00460
C4147       C  0.54765170  0.62677518  0.53041241    -0.09030
C4148       C  0.55724011  0.64571053  0.50853655    -0.06410
C4149       C  0.54883417  0.64388839  0.97827417    -0.00470
C4150       C  0.52466702  0.62968869  0.97137542    -0.08940
C4151       C  0.51088584  0.63321797  0.94067915     0.61440
H4152       H  0.49686128  0.59885095  0.98718937     0.12130
H4153       H  0.57447555  0.65887908  0.51376414     0.12150
C4154       C  0.56392031  0.62227524  0.55972956     0.61670
F4155       F  0.48591844  0.62001584  0.93979544    -0.23490
F4156       F  0.52675355  0.62201495  0.91752648    -0.20820
F4157       F  0.50672093  0.66170177  0.93540243    -0.20500
F4158       F  0.57374916  0.59484303  0.56047766    -0.20550
F4159       F  0.54841178  0.62683856  0.58546363    -0.20870
F4160       F  0.58582988  0.64029838  0.56154351    -0.23550
C4161       C  0.46100753  0.49380091  0.56899600    -0.06380
C4162       C  0.43440551  0.48864963  0.57902780    -0.00460
C4163       C  0.42743286  0.46046304  0.58537284    -0.09030
C4164       C  0.44556864  0.43886561  0.57507285    -0.06410
C4165       C  0.46983009  0.44577067  0.55954518    -0.00470
C4166       C  0.48017557  0.47269264  0.56333278    -0.08940
C4167       C  0.50741533  0.48023856  0.04921813     0.61440
H4168       H  0.46622814  0.51425491  0.56215188     0.12130
H4169       H  0.43890666  0.41714896  0.57444383     0.12150
C4170       C  0.40074837  0.45340501  0.60054612     0.61670
F4171       F  0.51987218  0.50147168  0.06565421    -0.23490
F4172       F  0.50385764  0.48914875  0.01955859    -0.20820
F4173       F  0.52457155  0.45692031  0.04897711    -0.20500
F4174       F  0.37912209  0.46407000  0.58402887    -0.20550
F4175       F  0.40020114  0.46529109  0.62944014    -0.20870
F4176       F  0.39749962  0.42450118  0.60317462    -0.23550
C4177       C  0.48956347  0.72901774  0.57021805    -0.06380
C4178       C  0.46196984  0.72131911  0.57047197    -0.00460
C4179       C  0.44459456  0.73109270  0.54682537    -0.09030
C4180       C  0.45667992  0.74543424  0.52278260    -0.06410
C4181       C  0.47855964  0.76214843  0.53128913    -0.00470
C4182       C  0.49838771  0.74918831  0.54948084    -0.08940
C4183       C  0.52780564  0.75738511  0.54825329     0.61440
H4184       H  0.50391137  0.71984797  0.58608741     0.12130
H4185       H  0.44406350  0.75263059  0.50412005     0.12150
C4186       C  0.41384036  0.73022203  0.54882116     0.61670
F4187       F  0.54334144  0.73382059  0.54080832    -0.23490
F4188       F  0.53593234  0.76761863  0.57638781    -0.20820
F4189       F  0.53208870  0.77787013  0.52649470    -0.20500
F4190       F  0.40487169  0.73584236  0.57822275    -0.20550
F4191       F  0.40507066  0.70434029  0.53855520    -0.20870
F4192       F  0.40190266  0.75040533  0.53137034    -0.23550
loop_ 
_geom_bond_atom_site_label_1 
_geom_bond_atom_site_label_2 
_geom_bond_distance 
_geom_bond_site_symmetry_2 
_ccdc_geom_bond_type 
Zr1           O2   2.464       .  S
Zr1           O3   2.484       .  S
Zr1           O4   2.420       .  S
Zr1           O7   2.402       .  S
Zr1           O9   2.385       .  S
Zr1          O10   2.415       .  S
Zr1          O11   2.402       .  S
Zr1          O12   2.427       .  S
O2           H58   0.990   1_554  S
O2         H2162   0.990       .  S
O3           C23   1.281       .  A
O4           C25   1.270       .  A
O5          Zr15   2.489       .  S
O5           C24   1.280       .  A
O6          Zr14   2.386       .  S
O6           C25   1.261       .  A
O7           C24   1.263       .  A
O8          Zr16   2.510       .  S
O8           C23   1.295       .  A
O9          Zr14   2.385       .  S
O9          Zr16   2.362       .  S
O10         Zr15   2.459       .  S
O10         Zr16   2.349       .  S
O10          H45   0.966       .  S
O11         Zr14   2.394       .  S
O11         Zr31   2.400       .  S
O11          H48   0.958       .  S
O12         Zr15   2.430       .  S
O12         Zr31   2.388       .  S
Zr13         O38   2.429       .  S
Zr13         O32   2.590       .  S
Zr13         O40   2.331       .  S
Zr13         O28   2.386       .  S
Zr13         O19   2.437       .  S
Zr13         O20   2.412       .  S
Zr13         O21   2.345       .  S
Zr13         O22   2.386       .  S
Zr14         O33   2.447       .  S
Zr14         O26   2.438       .  S
Zr14         O27   2.362       .  S
Zr14         O20   2.396       .  S
Zr14         O21   2.391       .  S
Zr15         O17   2.434       .  S
Zr15         O39   2.434       .  S
Zr15         O41   2.538       .  S
Zr15         O19   2.389       .  S
Zr15         O22   2.426       .  S
Zr16         O42   2.436       .  S
Zr16         O43   2.435       .  S
Zr16         O18   2.436       .  S
Zr16         O19   2.420       .  S
Zr16         O20   2.422       .  S
O17          H54   0.990       .  S
O18          H49   0.990       .  S
O18          H63   0.990       .  S
O20          H46   0.966       .  S
O21         Zr31   2.386       .  S
O22         Zr31   2.379       .  S
O22          H47   0.966       .  S
C23        C2034   1.533       .  S
C24        C2066   1.495       .  S
C25        C2050   1.462       .  S
O26          H62   0.990       .  S
O27          C29   1.259       .  A
O28          C29   1.268       .  A
C29        C2082   1.453       .  S
O30       Zr2127   2.439       .  S
O30          H59   0.990       .  S
Zr31         O35   2.437       .  S
Zr31       O2126   2.439   1_554  S
Zr31       O2130   2.438   1_554  S
Zr31         O36   2.434       .  S
O32          C37   1.320       .  A
O33          H50   0.988       .  S
O33          H65   0.988       .  S
O34       Zr2127   2.438       .  S
O34          H51   0.990       .  S
O35          H64   0.990       .  S
O35        H2151   0.990   1_554  S
O36          C37   1.281       .  A
C37        C2404   1.542       .  S
O38          H57   0.989       .  S
O38          H61   0.990       .  S
O39          H53   0.990       .  S
O39          H60   0.990       .  S
O40          C44   1.246       .  A
O41          C44   1.291       .  A
O42          H52   0.990       .  S
O43          H56   0.990       .  S
C44         C355   1.487       .  S
H55        O2131   0.990       .  S
H66        O2098   0.990       .  S
Zr67         O68   2.430       .  S
Zr67         O69   2.465       .  S
Zr67         O70   2.452       .  S
Zr67         O73   2.391       .  S
Zr67         O75   2.384       .  S
Zr67         O76   2.404       .  S
Zr67         O77   2.429       .  S
Zr67         O78   2.431       .  S
O68         H124   0.989       .  S
O68         H132   0.990       .  S
O69          C89   1.290       .  A
O70          C91   1.274       .  A
O71         Zr81   2.419       .  S
O71          C90   1.273       .  A
O72         Zr80   2.365       .  S
O72          C91   1.258       .  A
O73          C90   1.272       .  A
O74         Zr82   2.498       .  S
O74          C89   1.295       .  A
O75         Zr80   2.406       .  S
O75         Zr82   2.362       .  S
O76         Zr81   2.451       .  S
O76         Zr82   2.338       .  S
O76         H111   0.966       .  S
O77         Zr80   2.405       .  S
O77         Zr97   2.392       .  S
O77         H114   0.961       .  S
O78         Zr81   2.427       .  S
O78         Zr97   2.395       .  S
Zr79       O2200   2.429       .  S
Zr79         O98   2.585       .  S
Zr79        O106   2.352       .  S
Zr79         O94   2.416       .  S
Zr79         O85   2.433       .  S
Zr79         O86   2.401       .  S
Zr79         O87   2.346       .  S
Zr79         O88   2.375       .  S
Zr80         O99   2.442       .  S
Zr80         O92   2.421       .  S
Zr80         O93   2.388       .  S
Zr80         O86   2.369       .  S
Zr80         O87   2.386       .  S
Zr81         O83   2.434       .  S
Zr81       O2201   2.435   1_554  S
Zr81        O107   2.495       .  S
Zr81         O85   2.375       .  S
Zr81         O88   2.407       .  S
Zr82       O2204   2.436   1_554  S
Zr82       O2205   2.435   1_554  S
Zr82       O2180   2.436   1_554  S
Zr82         O85   2.427       .  S
Zr82         O86   2.399       .  S
O83         H120   0.990       .  S
O84       Zr2178   2.436       .  S
O84         H115   0.990       .  S
O84        H2225   0.990       .  S
O86         H112   0.963       .  S
O87         Zr97   2.398       .  S
O88         Zr97   2.372       .  S
O88         H113   0.965       .  S
C89        C2021   1.527       .  S
C90        C2002   1.449   1_565  S
C91        C1986   1.479       .  S
O92         H128   0.991       .  S
O93          C95   1.270       .  A
O94          C95   1.289       .  A
C95        C2085   1.470       .  S
O96         Zr97   2.440       .  S
O96         H125   0.990       .  S
Zr97        O100   2.438       .  S
Zr97        O101   2.438       .  S
Zr97        O102   2.432       .  S
O98         C103   1.319       .  A
O99         H116   0.988       .  S
O99         H131   0.988       .  S
O100        H117   0.990       .  S
O101        H121   0.990       .  S
O101        H130   0.990       .  S
O102        C103   1.281       .  A
C103        C354   1.540       .  S
O104      Zr2175   2.434       .  S
O104        H123   0.982       .  S
O104        H127   0.991       .  S
O105      Zr2177   2.435       .  S
O105        H126   0.990       .  S
O105       H2215   0.990       .  S
O106        C110   1.253       .  A
O107        C110   1.286       .  A
O108      Zr2178   2.436       .  S
O108        H118   0.990       .  S
O109      Zr2178   2.435       .  S
O109        H122   0.990       .  S
C110       C2389   1.470       .  S
H119       O2201   0.990       .  S
H129       O2180   0.990   1_554  S
Zr133       O134   2.429       .  S
Zr133       O135   2.514       .  S
Zr133       O136   2.514       .  S
Zr133       O139   2.418       .  S
Zr133       O141   2.353       .  S
Zr133       O142   2.412       .  S
Zr133       O143   2.376       .  S
Zr133       O144   2.451       .  S
O134        H190   0.989       .  S
O134        H198   0.986       .  S
O135        C155   1.297       .  A
O136        C157   1.297       .  A
O137       Zr147   2.480       .  S
O137        C156   1.286       .  A
O138       Zr146   2.319       .  S
O138        C157   1.251       .  A
O139        C156   1.273       .  A
O140       Zr148   2.495       .  S
O140        C155   1.291       .  A
O141       Zr146   2.415       .  S
O141       Zr148   2.397       .  S
O142       Zr147   2.462       .  S
O142       Zr148   2.318       .  S
O142        H177   0.966       .  S
O143       Zr146   2.421       .  S
O143       Zr163   2.375       .  S
O143        H180   0.967       .  S
O144       Zr147   2.419       .  S
O144       Zr163   2.393       .  S
Zr145       O170   2.428       .  S
Zr145       O164   2.535       .  S
Zr145       O172   2.344       .  S
Zr145       O160   2.440       .  S
Zr145       O151   2.459       .  S
Zr145       O152   2.388       .  S
Zr145       O153   2.325       .  S
Zr145       O154   2.389       .  S
Zr146       O165   2.434       .  S
Zr146       O158   2.404       .  S
Zr146       O159   2.386       .  S
Zr146       O152   2.356       .  S
Zr146       O153   2.356       .  S
Zr147       O149   2.434       .  S
Zr147       O171   2.435       .  S
Zr147       O173   2.542       .  S
Zr147       O151   2.386       .  S
Zr147       O154   2.415       .  S
Zr148       O174   2.437       .  S
Zr148       O175   2.437       .  S
Zr148       O150   2.437       .  S
Zr148       O151   2.437       .  S
Zr148       O152   2.374       .  S
O149        H186   0.990       .  S
O150        H181   0.990       .  S
O150        H195   0.990       .  S
O152        H178   0.958       .  S
O153       Zr163   2.400       .  S
O154       Zr163   2.372       .  S
O154        H179   0.966       .  S
C155       C1925   1.552       .  S
C156       C1938   1.479   1_565  S
C157       C1954   1.445       .  S
O158        H194   0.990       .  S
O159        C161   1.271       .  A
O160        C161   1.291       .  A
C161       C1973   1.467       .  S
O162       Zr163   2.439       .  S
O162        H191   0.990       .  S
Zr163       O166   2.439       .  S
Zr163       O167   2.439       .  S
Zr163       O168   2.417       .  S
O164        C169   1.304       .  A
O165        H182   0.990       .  S
O165        H197   0.990       .  S
O166        H183   0.990       .  S
O167        H187   0.990       .  S
O167        H196   0.989       .  S
O168        C169   1.277       .  A
C169        C374   1.514       .  S
O170        H189   0.989       .  S
O170        H193   0.985       .  S
O171        H185   0.990       .  S
O171        H192   0.990       .  S
O172        C176   1.257       .  A
O173        C176   1.300       .  A
O174        H184   0.990       .  S
O175        H188   0.990       .  S
C176        C289   1.485       .  S
Zr199       O200   2.430       .  S
Zr199       O201   2.416       .  S
Zr199       O202   2.492       .  S
Zr199       O205   2.360       .  S
Zr199       O207   2.342       .  S
Zr199       O208   2.431       .  S
Zr199       O209   2.386       .  S
Zr199       O210   2.445       .  S
O200        H256   0.989       .  S
O200        H264   0.989       .  S
O201        C221   1.274       .  A
O202        C223   1.288       .  A
O203       Zr213   2.473       .  S
O203        C222   1.256       .  A
O204       Zr212   2.283       .  S
O204        C223   1.254       .  A
O205        C222   1.253       .  A
O206       Zr214   2.553       .  S
O206        C221   1.304       .  A
O207       Zr212   2.380       .  S
O207       Zr214   2.357       .  S
O208       Zr213   2.502       .  S
O208       Zr214   2.345       .  S
O208        H243   0.973       .  S
O209       Zr212   2.417       .  S
O209       Zr229   2.398       .  S
O209        H246   0.965       .  S
O210       Zr213   2.474       .  S
O210       Zr229   2.374       .  S
Zr211       O236   2.426       .  S
Zr211       O230   2.548       .  S
Zr211       O238   2.339       .  S
Zr211       O226   2.410       .  S
Zr211       O217   2.445       .  S
Zr211       O218   2.412       .  S
Zr211       O219   2.328       .  S
Zr211       O220   2.378       .  S
Zr212       O231   2.439       .  S
Zr212       O224   2.438       .  S
Zr212       O225   2.330       .  S
Zr212       O218   2.367       .  S
Zr212       O219   2.374       .  S
Zr213       O215   2.436       .  S
Zr213       O237   2.434       .  S
Zr213       O239   2.497       .  S
Zr213       O217   2.389       .  S
Zr213       O220   2.418       .  S
Zr214       O240   2.439       .  S
Zr214       O241   2.434       .  S
Zr214       O216   2.435       .  S
Zr214       O217   2.455       .  S
Zr214       O218   2.431       .  S
O215        H252   0.990       .  S
O216        H247   0.990       .  S
O216        H261   0.989       .  S
O218        H244   0.965       .  S
O219       Zr229   2.378       .  S
O220       Zr229   2.381       .  S
O220        H245   0.966       .  S
C221       C1877   1.532       .  S
C222       C1909   1.445       .  S
C223       C1893   1.430       .  S
O224        H260   0.989       .  S
O225        C227   1.261       .  A
O226        C227   1.276       .  A
C227       C1970   1.419       .  S
O228       Zr229   2.434       .  S
O228        H257   0.990       .  S
Zr229       O232   2.438       .  S
Zr229       O233   2.438       .  S
Zr229       O234   2.430       .  S
O230        C235   1.307       .  A
O231        H248   0.990       .  S
O231        H263   0.990       .  S
O232        H249   0.990       .  S
O233        H253   0.990       .  S
O233        H262   0.990       .  S
O234        C235   1.279       .  A
C235        C288   1.527       .  S
O236        H255   0.990       .  S
O236        H259   0.990       .  S
O237        H251   0.990       .  S
O237        H258   0.990       .  S
O238        C242   1.257       .  A
O239        C242   1.290       .  A
O240        H250   0.990       .  S
O241        H254   0.990       .  S
C242        C359   1.463       .  S
Zr265       O266   2.418       .  S
Zr265       O267   2.419       .  S
Zr265       O268   2.497       .  S
Zr265       O271   2.442       .  S
Zr265       O273   2.368       .  S
Zr265       O274   2.390       .  S
Zr265       O275   2.381       .  S
Zr265       O276   2.400       .  S
O266        H322   0.987       .  S
O266        H330   0.983       .  S
O267        C287   1.287       .  A
O268        C289   1.304       .  A
O269       Zr279   2.568       .  S
O269        C288   1.316       .  A
O270       Zr278   2.413       .  S
O270        C289   1.276       .  A
O271        C288   1.289       .  A
O272       Zr280   2.424       .  S
O272        C287   1.284       .  A
O273       Zr278   2.390       .  S
O273       Zr280   2.377       .  S
O274       Zr279   2.380       .  S
O274       Zr280   2.365       .  S
O274        H309   0.965       .  S
O275       Zr278   2.379       .  S
O275       Zr295   2.389       .  S
O275        H312   0.966       .  S
O276       Zr279   2.396       .  S
O276       Zr295   2.394       .  S
Zr277       O302   2.428       .  S
Zr277      O2392   2.382       .  S
Zr277      O2400   2.453       .  S
Zr277      O2388   2.492       .  S
Zr277       O283   2.398       .  S
Zr277       O284   2.391       .  S
Zr277       O285   2.373       .  S
Zr277       O286   2.389       .  S
Zr278       O297   2.440       .  S
Zr278       O290   2.435       .  S
Zr278       O291   2.390       .  S
Zr278       O284   2.396       .  S
Zr278       O285   2.389       .  S
Zr279       O281   2.435       .  S
Zr279       O303   2.435       .  S
Zr279       O305   2.589       .  S
Zr279       O283   2.398       .  S
Zr279       O286   2.363       .  S
Zr280       O306   2.435       .  S
Zr280       O307   2.438       .  S
Zr280       O282   2.439       .  S
Zr280       O283   2.401       .  S
Zr280       O284   2.401       .  S
O281        H318   0.990       .  S
O282        H313   0.990       .  S
O282        H327   0.990       .  S
O284        H310   0.966       .  S
O285       Zr295   2.373       .  S
O286       Zr295   2.369       .  S
O286       H2407   0.964       .  S
C287        C367   1.459       .  S
O290        H326   0.990       .  S
O291        C293   1.272       .  A
O292      Zr2373   2.490   1_554  S
O292       C2389   1.301       .  A
C293       O2388   1.301       .  A
C293       C2206   1.470       .  S
O294       Zr295   2.440       .  S
O294       H2419   0.990       .  S
Zr295      O2394   2.437       .  S
Zr295      O2395   2.437       .  S
Zr295      O2396   2.404       .  S
O296      Zr2373   2.382   1_554  S
O296        C301   1.279       .  A
O297        H314   0.990       .  S
O297        H329   0.990       .  S
O298      Zr2391   2.437   1_554  S
O298        H315   0.990       .  S
O299      Zr2391   2.437   1_554  S
O299        H319   0.990       .  S
O299        H328   0.990       .  S
O300      Zr2391   2.405   1_554  S
O300        C301   1.281       .  A
C301        C353   1.433       .  S
O302        H321   0.990       .  S
O302        H325   0.987       .  S
O303        H317   0.990       .  S
O303        H324   0.990       .  S
O304      Zr2373   2.453   1_554  S
O304       C2404   1.289       .  A
O305        C308   1.320       .  A
O306        H316   0.990       .  S
O307        H320   0.990       .  S
C308       O2400   1.289       .  A
C308       C2133   1.542       .  S
H311       O2382   0.964   1_554  S
H323       O2390   0.990   1_554  S
Zr331       O332   2.440       .  S
Zr331       O333   2.394       .  S
Zr331       O334   2.523       .  S
Zr331       O337   2.453       .  S
Zr331       O339   2.373       .  S
Zr331       O340   2.393       .  S
Zr331       O341   2.392       .  S
Zr331       O342   2.408       .  S
O332        H388   0.989       .  S
O332        H396   0.990       .  S
O333        C353   1.281       .  A
O334        C355   1.307       .  A
O335       Zr345   2.582       .  S
O335        C354   1.319       .  A
O336       Zr344   2.397       .  S
O336        C355   1.271       .  A
O337        C354   1.288       .  A
O338       Zr346   2.390       .  S
O338        C353   1.278       .  A
O339       Zr344   2.387       .  S
O339       Zr346   2.381       .  S
O340       Zr345   2.362       .  S
O340       Zr346   2.373       .  S
O340        H375   0.965       .  S
O341       Zr344   2.393       .  S
O341       Zr361   2.407       .  S
O341        H378   0.966       .  S
O342       Zr345   2.392       .  S
O342       Zr361   2.402       .  S
Zr343       O368   2.434       .  S
Zr343       O362   2.401       .  S
Zr343       O370   2.427       .  S
Zr343       O358   2.481       .  S
Zr343       O349   2.403       .  S
Zr343       O350   2.384       .  S
Zr343       O351   2.373       .  S
Zr343       O352   2.393       .  S
Zr344       O363   2.441       .  S
Zr344       O356   2.435       .  S
Zr344       O357   2.380       .  S
Zr344       O350   2.394       .  S
Zr344       O351   2.397       .  S
Zr345       O347   2.434       .  S
Zr345       O369   2.435       .  S
Zr345       O371   2.547       .  S
Zr345       O349   2.409       .  S
Zr345       O352   2.385       .  S
Zr346       O372   2.434       .  S
Zr346       O373   2.438       .  S
Zr346       O348   2.437       .  S
Zr346       O349   2.385       .  S
Zr346       O350   2.379       .  S
O347        H384   0.990       .  S
O348        H379   0.990       .  S
O348        H393   0.990       .  S
O350        H376   0.966       .  S
O351       Zr361   2.374       .  S
O352       Zr361   2.365       .  S
O352        H377   0.965       .  S
O356        H392   0.990       .  S
O357        C359   1.270       .  A
O358        C359   1.298       .  A
O360       Zr361   2.439       .  S
O360        H389   0.990       .  S
Zr361       O364   2.435       .  S
Zr361       O365   2.438       .  S
Zr361       O366   2.437       .  S
O362        C367   1.280       .  A
O363        H380   0.990       .  S
O363        H395   0.990       .  S
O364        H381   0.990       .  S
O365        H385   0.990       .  S
O365        H394   0.990       .  S
O366        C367   1.286       .  A
O368        H387   0.990       .  S
O368        H391   0.990       .  S
O369        H383   0.990       .  S
O369        H390   0.990       .  S
O370        C374   1.284       .  A
O371        C374   1.311       .  A
O372        H382   0.990       .  S
O373        H386   0.990       .  S
Zr397       O398   2.426       .  S
Zr397       O399   2.438       .  S
Zr397       O400   2.441       .  S
Zr397       O403   2.493       .  S
Zr397       O405   2.391       .  S
Zr397       O406   2.384       .  S
Zr397       O407   2.440       .  S
Zr397       O408   2.337       .  S
O398        H454   0.985       .  S
O398        H462   0.986       .  S
O399        C419   1.284       .  A
O400        C421   1.272       .  A
O401       Zr411   2.404       .  S
O401        C420   1.272       .  A
O402       Zr410   2.434       .  S
O402        C421   1.276       .  A
O403        C420   1.293       .  A
O404       Zr412   2.518       .  S
O404        C419   1.299       .  A
O405       Zr410   2.430       .  S
O405       Zr412   2.362       .  S
O406       Zr411   2.383       .  S
O406       Zr412   2.371       .  S
O406        H441   0.964       .  S
O407       Zr410   2.451       .  S
O407       Zr427   2.410       .  S
O407        H444   0.955       .  S
O408       Zr411   2.336       .  S
O408       Zr427   2.347       .  S
Zr409       O434   2.439       .  S
Zr409       O428   2.548       .  S
Zr409       O436   2.417       .  S
Zr409       O424   2.356       .  S
Zr409       O415   2.424       .  S
Zr409       O416   2.435       .  S
Zr409       O417   2.353       .  S
Zr409       O418   2.360       .  S
Zr410       O429   2.435       .  S
Zr410       O422   2.435       .  S
Zr410       O423   2.510       .  S
Zr410       O416   2.391       .  S
Zr410       O417   2.389       .  S
Zr411       O413   2.432       .  S
Zr411       O435   2.442       .  S
Zr411       O437   2.370       .  S
Zr411       O415   2.364       .  S
Zr411       O418   2.425       .  S
Zr412       O438   2.435       .  S
Zr412       O439   2.436       .  S
Zr412       O414   2.438       .  S
Zr412       O415   2.414       .  S
Zr412       O416   2.448       .  S
O413        H450   0.990       .  S
O414        H445   0.990       .  S
O414        H459   0.990       .  S
O416        H442   0.966       .  S
O417       Zr427   2.364       .  S
O418       Zr427   2.409       .  S
O418        H443   0.965       .  S
C419       C1826   1.517       .  S
C420       C1845   1.471       .  S
C421       C1989   1.465       .  S
O422        H458   0.990       .  S
O423        C425   1.297       .  A
O424        C425   1.269       .  A
C425        C704   1.479       .  S
O426       Zr427   2.439       .  S
O426        H455   0.990       .  S
Zr427       O430   2.439       .  S
Zr427       O431   2.446       .  S
Zr427       O432   2.412       .  S
O428        C433   1.310       .  A
O429        H446   0.990       .  S
O429        H461   0.990       .  S
O430        H447   0.990       .  S
O431        H451   0.990       .  S
O431        H460   0.989       .  S
O432        C433   1.275       .  A
C433        C751   1.516       .  S
O434        H453   0.988       .  S
O434        H457   0.990       .  S
O435        H449   0.990       .  S
O435        H456   0.990       .  S
O436        C440   1.284       .  A
O437        C440   1.267       .  A
O438        H448   0.990       .  S
O439        H452   0.990       .  S
C440       C1858   1.433       .  S
Zr463       O464   2.447   1_655  S
Zr463       O465   2.492       .  S
Zr463       O466   2.374       .  S
Zr463       O469   2.496       .  S
Zr463       O471   2.423       .  S
Zr463       O472   2.341       .  S
Zr463       O473   2.371       .  S
Zr463       O474   2.344       .  S
O464        H520   0.987       .  S
O464        H528   0.987       .  S
O465        C485   1.290       .  A
O466        C487   1.245   1_655  A
O467       Zr477   2.399       .  S
O467        C486   1.283       .  A
O468       Zr476   2.451       .  S
O468        C487   1.266   1_655  A
O469        C486   1.294       .  A
O470       Zr478   2.478       .  S
O470        C485   1.288       .  A
O471       Zr476   2.479       .  S
O471       Zr478   2.395       .  S
O472       Zr477   2.395       .  S
O472       Zr478   2.404       .  S
O472        H507   0.966       .  S
O473       Zr476   2.382       .  S
O473       Zr493   2.367       .  S
O473        H510   0.962       .  S
O474       Zr477   2.359       .  S
O474       Zr493   2.369       .  S
Zr475       O500   2.440       .  S
Zr475       O494   2.559       .  S
Zr475       O502   2.417       .  S
Zr475       O490   2.340       .  S
Zr475       O481   2.415       .  S
Zr475       O482   2.472       .  S
Zr475       O483   2.404       .  S
Zr475       O484   2.359       .  S
Zr476       O495   2.447       .  S
Zr476       O488   2.434       .  S
Zr476       O489   2.487       .  S
Zr476       O482   2.388       .  S
Zr476       O483   2.426       .  S
Zr477       O479   2.436       .  S
Zr477       O501   2.433       .  S
Zr477       O503   2.367       .  S
Zr477       O481   2.378       .  S
Zr477       O484   2.405       .  S
Zr478       O504   2.436       .  S
Zr478       O505   2.437       .  S
Zr478       O480   2.440       .  S
Zr478       O481   2.427       .  S
Zr478       O482   2.435       .  S
O479        H516   0.990       .  S
O480        H511   0.990       .  S
O480        H525   0.990       .  S
O482        H508   0.966       .  S
O483       Zr493   2.387       .  S
O484       Zr493   2.391       .  S
O484        H509   0.965       .  S
C485       C1794   1.529   1_655  S
C486       C1810   1.465       .  S
C487       C1957   1.465       .  S
O488        H524   0.990       .  S
O489        C491   1.291       .  A
O490        C491   1.257       .  A
C491        C750   1.456       .  S
O492       Zr493   2.438       .  S
O492        H521   0.990       .  S
Zr493       O496   2.431       .  S
Zr493       O497   2.450       .  S
Zr493       O498   2.382       .  S
O494        C499   1.312       .  A
O495        H512   0.990       .  S
O495        H527   0.988       .  S
O496        H513   0.990       .  S
O497        H517   0.990       .  S
O497        H526   0.989       .  S
O498        C499   1.271       .  A
C499        C689   1.510       .  S
O500        H519   0.990       .  S
O500        H523   0.983       .  S
O501        H515   0.990       .  S
O501        H522   0.989       .  S
O502        C506   1.280       .  A
O503        C506   1.265       .  A
O504        H514   0.990       .  S
O505        H518   0.990       .  S
C506       C1861   1.428       .  S
Zr529      O2626   2.413       .  S
Zr529       O531   2.425       .  S
Zr529       O532   2.442       .  S
Zr529      O2631   2.466       .  S
Zr529       O537   2.394       .  S
Zr529       O538   2.375       .  S
Zr529       O539   2.435       .  S
Zr529       O540   2.389       .  S
O530      Zr2625   2.414       .  S
O530        H586   0.982       .  S
O530        H594   0.983   1_556  S
O531        C551   1.280       .  A
O532        C553   1.273       .  A
O533       Zr543   2.390       .  S
O533       C2648   1.257       .  A
O534       Zr542   2.422       .  S
O534        C553   1.272       .  A
O535      Zr2625   2.467   1_554  S
O535        C552   1.285       .  A
O536       Zr544   2.551       .  S
O536        C551   1.305       .  A
O537       Zr542   2.431       .  S
O537       Zr544   2.358       .  S
O538       Zr543   2.379       .  S
O538       Zr544   2.344       .  S
O538        H573   0.965       .  S
O539       Zr542   2.455       .  S
O539      Zr2655   2.389       .  S
O539        H576   0.956       .  S
O540       Zr543   2.381       .  S
O540      Zr2655   2.376       .  S
Zr541       O566   2.441       .  S
Zr541       O560   2.559       .  S
Zr541       O568   2.430       .  S
Zr541       O556   2.346       .  S
Zr541       O547   2.414       .  S
Zr541       O548   2.443       .  S
Zr541       O549   2.352       .  S
Zr541       O550   2.336       .  S
Zr542       O561   2.436       .  S
Zr542       O554   2.435       .  S
Zr542       O555   2.498       .  S
Zr542       O548   2.391       .  S
Zr542       O549   2.388       .  S
Zr543       O567   2.449       .  S
Zr543      O2641   2.429       .  S
Zr543       O569   2.364       .  S
Zr543       O547   2.358       .  S
Zr543       O550   2.411       .  S
Zr544       O570   2.435       .  S
Zr544       O571   2.436       .  S
Zr544       O546   2.437       .  S
Zr544       O547   2.425       .  S
Zr544       O548   2.454       .  S
O545      Zr2639   2.431   1_554  S
O545        H582   0.988       .  S
O546        H577   0.990       .  S
O546        H591   0.990       .  S
O548        H574   0.966       .  S
O549      Zr2655   2.370       .  S
O550      Zr2655   2.389       .  S
O550        H575   0.964       .  S
C551       C1749   1.527       .  S
C552       O2629   1.256   1_554  A
C552       C1762   1.478       .  S
C553       C2053   1.459       .  S
O554        H590   0.990       .  S
O555        C557   1.293       .  A
O556        C557   1.268       .  A
C557        C684   1.472       .  S
O558       Zr559   2.438       .  S
O558        H587   0.990       .  S
Zr559       O562   2.438       .  S
Zr559       O563   2.443       .  S
Zr559       O564   2.430       .  S
Zr559      O2635   2.388   1_554  S
Zr559      O2636   2.379   1_554  S
Zr559      O2645   2.374   1_554  S
Zr559      O2646   2.391   1_554  S
O560        C565   1.311       .  A
O561        H578   0.990       .  S
O561        H593   0.990       .  S
O562        H579   0.990       .  S
O563        H583   0.990       .  S
O563        H592   0.990       .  S
O564       C2661   1.279       .  A
C565       O2660   1.280       .  A
C565       C2851   1.532       .  S
O566        H585   0.990       .  S
O566        H589   0.990       .  S
O567        H581   0.989       .  S
O567        H588   0.990       .  S
O568        C572   1.288       .  A
O569        C572   1.264       .  A
O570        H580   0.990       .  S
O571        H584   0.990       .  S
C572       C1778   1.445       .  S
Zr595       O596   2.418   1_655  S
Zr595       O597   2.443       .  S
Zr595       O598   2.413       .  S
Zr595       O601   2.504       .  S
Zr595       O603   2.423       .  S
Zr595       O604   2.374       .  S
Zr595       O605   2.480       .  S
Zr595       O606   2.405       .  S
O596        H652   0.984       .  S
O596        H660   0.986       .  S
O597       C2713   1.286   1_655  A
O598        C619   1.266   1_655  A
O599       Zr609   2.358       .  S
O599        C618   1.256       .  A
O600       Zr608   2.445       .  S
O600        C619   1.263   1_655  A
O601        C618   1.294       .  A
O602       Zr610   2.554       .  S
O602        C617   1.307       .  A
O603       Zr608   2.470       .  S
O603      Zr2706   2.351       .  S
O604       Zr609   2.359       .  S
O604      Zr2706   2.371       .  S
O604        H639   0.965       .  S
O605       Zr608   2.498       .  S
O605       Zr625   2.355       .  S
O605        H642   0.958       .  S
O606       Zr609   2.410       .  S
O606       Zr625   2.384       .  S
Zr607      O2728   2.439       .  S
Zr607       O626   2.581       .  S
Zr607      O2730   2.404       .  S
Zr607      O2718   2.288       .  S
Zr607       O615   2.380       .  S
Zr607       O616   2.274       .  S
Zr607      O2709   2.437       .  S
Zr607      O2710   2.462       .  S
Zr608       O627   2.439       .  S
Zr608      O2716   2.435       .  S
Zr608      O2717   2.543       .  S
Zr608       O615   2.413       .  S
Zr608      O2710   2.401       .  S
Zr609       O611   2.442       .  S
Zr609       O633   2.449       .  S
Zr609       O635   2.357       .  S
Zr609       O616   2.344       .  S
Zr609      O2709   2.360       .  S
Zr610       O636   2.434       .  S
Zr610       O637   2.435       .  S
Zr610       O612   2.438       .  S
Zr610       O613   2.469   1_554  S
Zr610       O614   2.456       .  S
Zr610      O2699   2.350   1_554  S
Zr610      O2700   2.370   1_554  S
O611        H648   0.989       .  S
O612        H643   0.990       .  S
O612        H657   0.990       .  S
O613      Zr2703   2.437       .  S
O613      Zr2705   2.358       .  S
O614      Zr2703   2.462   1_554  S
O614      Zr2704   2.400   1_554  S
O614        H640   0.966       .  S
O615       Zr625   2.391       .  S
O616       Zr625   2.375       .  S
O616        H641   0.956       .  S
C617       O2693   1.286   1_554  A
C617       C1714   1.533   1_655  S
C618       C1730   1.494       .  S
C619       C1890   1.461       .  S
O620      Zr2704   2.435   1_554  S
O620        H656   0.990       .  S
O621      Zr2704   2.540       .  S
O621        C623   1.299   1_556  A
O622      Zr2703   2.288   1_554  S
O622        C623   1.249       .  A
C623        C770   1.455       .  S
O624       Zr625   2.436       .  S
O624        H653   0.990       .  S
Zr625       O628   2.436       .  S
Zr625       O629   2.430       .  S
Zr625       O630   2.412       .  S
O626        C631   1.315       .  A
O627        H644   0.990       .  S
O627        H659   0.989       .  S
O628        H645   0.990       .  S
O629        H649   0.989       .  S
O629        H658   0.990       .  S
O630        C631   1.275       .  A
C631        C685   1.533       .  S
O632      Zr2703   2.439   1_554  S
O632        H651   0.989       .  S
O632        H655   0.990       .  S
O633        H647   0.990       .  S
O633        H654   0.990       .  S
O634      Zr2703   2.410       .  S
O634       C2734   1.271       .  A
O635        C638   1.263       .  A
O636        H646   0.990       .  S
O637        H650   0.990       .  S
C638       O2730   1.270       .  A
C638       C1781   1.450       .  S
Zr661       O662   2.435       .  S
Zr661       O663   2.388       .  S
Zr661       O664   2.444       .  S
Zr661       O667   2.418       .  S
Zr661       O669   2.377       .  S
Zr661       O670   2.373       .  S
Zr661       O671   2.405       .  S
Zr661       O672   2.396       .  S
O662        H718   0.990       .  S
O662        H726   0.987       .  S
O663        C683   1.276       .  A
O664        C685   1.281       .  A
O665       Zr675   2.426       .  S
O665        C684   1.277       .  A
O666       Zr674   2.568       .  S
O666        C685   1.314       .  A
O667        C684   1.285       .  A
O668       Zr676   2.431       .  S
O668        C683   1.280       .  A
O669       Zr674   2.400       .  S
O669       Zr676   2.385       .  S
O670       Zr675   2.410       .  S
O670       Zr676   2.382       .  S
O670        H705   0.966       .  S
O671       Zr674   2.410       .  S
O671       Zr691   2.401       .  S
O671        H708   0.966       .  S
O672       Zr675   2.408       .  S
O672       Zr691   2.407       .  S
Zr673       O698   2.442       .  S
Zr673       O692   2.404       .  S
Zr673       O700   2.433       .  S
Zr673       O688   2.413       .  S
Zr673       O679   2.387       .  S
Zr673       O680   2.408       .  S
Zr673       O681   2.384       .  S
Zr673       O682   2.367       .  S
Zr674       O693   2.434       .  S
Zr674       O686   2.435       .  S
Zr674       O687   2.550       .  S
Zr674       O680   2.416       .  S
Zr674       O681   2.400       .  S
Zr675       O677   2.434       .  S
Zr675       O699   2.437       .  S
Zr675       O701   2.435       .  S
Zr675       O679   2.400       .  S
Zr675       O682   2.400       .  S
Zr676       O702   2.436       .  S
Zr676       O703   2.436       .  S
Zr676       O678   2.436       .  S
Zr676       O679   2.404       .  S
Zr676       O680   2.393       .  S
O677        H714   0.990       .  S
O678        H709   0.990       .  S
O678        H723   0.990       .  S
O680        H706   0.966       .  S
O681       Zr691   2.376       .  S
O682       Zr691   2.388       .  S
O682        H707   0.966       .  S
C683        C763   1.462       .  S
O686        H722   0.990       .  S
O687        C689   1.312       .  A
O688        C689   1.277       .  A
O690       Zr691   2.440       .  S
O690        H719   0.990       .  S
Zr691       O694   2.437       .  S
Zr691       O695   2.440       .  S
Zr691       O696   2.449       .  S
O692        C697   1.281       .  A
O693        H710   0.990       .  S
O693        H725   0.990       .  S
O694        H711   0.990       .  S
O695        H715   0.990       .  S
O695        H724   0.990       .  S
O696        C697   1.284       .  A
C697        C749   1.475       .  S
O698        H717   0.990       .  S
O698        H721   0.990       .  S
O699        H713   0.990       .  S
O699        H720   0.990       .  S
O700        C704   1.289       .  A
O701        C704   1.280       .  A
O702        H712   0.990       .  S
O703        H716   0.990       .  S
Zr727       O728   2.449       .  S
Zr727       O729   2.396       .  S
Zr727       O730   2.426       .  S
Zr727       O733   2.456       .  S
Zr727       O735   2.386       .  S
Zr727       O736   2.366       .  S
Zr727       O737   2.417       .  S
Zr727       O738   2.392       .  S
O728        H784   0.990       .  S
O728        H792   0.990       .  S
O729        C749   1.275       .  A
O730        C751   1.278       .  A
O731       Zr741   2.377       .  S
O731        C750   1.266       .  A
O732       Zr740   2.559       .  S
O732        C751   1.312       .  A
O733        C750   1.293       .  A
O734       Zr742   2.448       .  S
O734        C749   1.282       .  A
O735       Zr740   2.410       .  S
O735       Zr742   2.382       .  S
O736       Zr741   2.405       .  S
O736       Zr742   2.380       .  S
O736        H771   0.966       .  S
O737       Zr740   2.419       .  S
O737       Zr757   2.380       .  S
O737        H774   0.964       .  S
O738       Zr741   2.402       .  S
O738       Zr757   2.405       .  S
Zr739       O764   2.440   1_554  S
Zr739       O766   2.464       .  S
Zr739       O754   2.456       .  S
Zr739      O2854   2.397   1_554  S
Zr739       O745   2.395       .  S
Zr739       O746   2.414       .  S
Zr739       O747   2.386       .  S
Zr739       O748   2.367       .  S
Zr740       O759   2.434       .  S
Zr740       O752   2.434       .  S
Zr740       O753   2.566       .  S
Zr740       O746   2.416       .  S
Zr740       O747   2.404       .  S
Zr741       O743   2.437       .  S
Zr741       O765   2.436       .  S
Zr741       O767   2.390       .  S
Zr741       O745   2.400       .  S
Zr741       O748   2.395       .  S
Zr742       O768   2.435       .  S
Zr742       O769   2.436       .  S
Zr742       O744   2.436       .  S
Zr742       O745   2.414       .  S
Zr742       O746   2.394       .  S
O743        H780   0.991       .  S
O744        H775   0.990       .  S
O744        H789   0.990       .  S
O746        H772   0.964       .  S
O747       Zr757   2.390       .  S
O748       Zr757   2.375       .  S
O748        H773   0.966       .  S
O752        H788   0.990       .  S
O753        C755   1.314       .  A
O754        C755   1.285       .  A
C755       C2661   1.536       .  S
O756       Zr757   2.439       .  S
O756        H785   0.990       .  S
Zr757       O760   2.437       .  S
Zr757       O761   2.439       .  S
Zr757      O2858   2.424   1_554  S
O758      Zr2835   2.392       .  S
O758        C763   1.278       .  A
O759        H776   0.990       .  S
O759        H791   0.990       .  S
O760       H2873   0.990       .  S
O761       H2877   0.990       .  S
O761       H2886   0.990       .  S
O762      Zr2853   2.432       .  S
O762        C763   1.280       .  A
O764        H783   0.990   1_556  S
O764        H787   0.990       .  S
O765        H779   0.990       .  S
O765        H786   0.990       .  S
O766        C770   1.296       .  A
O767        C770   1.267       .  A
O768        H778   0.990       .  S
O769        H782   0.990       .  S
H777       O2856   0.990       .  S
H781       O2857   0.990       .  S
H790       O2857   0.990       .  S
Zr793       O794   2.433       .  S
Zr793       O795   2.435       .  S
Zr793       O796   2.466       .  S
Zr793       O799   2.409       .  S
Zr793       O801   2.383       .  S
Zr793       O802   2.397       .  S
Zr793       O803   2.423       .  S
Zr793       O804   2.428       .  S
O794        H850   0.990       .  S
O794        H858   0.990       .  S
O795        C815   1.282       .  A
O796        C817   1.278       .  A
O797       Zr807   2.423       .  S
O797        C816   1.284       .  A
O798       Zr806   2.362       .  S
O798        C817   1.259       .  A
O799        C816   1.286       .  A
O800       Zr808   2.535       .  S
O800        C815   1.302       .  A
O801       Zr806   2.409       .  S
O801       Zr808   2.357       .  S
O802       Zr807   2.428       .  S
O802       Zr808   2.334       .  S
O802        H837   0.965       .  S
O803       Zr806   2.411       .  S
O803       Zr823   2.380       .  S
O803        H840   0.960       .  S
O804       Zr807   2.418       .  S
O804       Zr823   2.402       .  S
Zr805       O830   2.443       .  S
Zr805       O824   2.635       .  S
Zr805       O832   2.347       .  S
Zr805       O820   2.401       .  S
Zr805       O811   2.439       .  S
Zr805       O812   2.422       .  S
Zr805       O813   2.357       .  S
Zr805       O814   2.377       .  S
Zr806       O825   2.441       .  S
Zr806       O818   2.425       .  S
Zr806       O819   2.378       .  S
Zr806       O812   2.382       .  S
Zr806       O813   2.392       .  S
Zr807       O809   2.434       .  S
Zr807       O831   2.434       .  S
Zr807       O833   2.500       .  S
Zr807       O811   2.378       .  S
Zr807       O814   2.405       .  S
Zr808       O834   2.436       .  S
Zr808       O835   2.435       .  S
Zr808       O810   2.436       .  S
Zr808       O811   2.441       .  S
Zr808       O812   2.415       .  S
O809        H846   0.990       .  S
O810        H841   0.990       .  S
O810        H855   0.990       .  S
O812        H838   0.965       .  S
O813       Zr823   2.397       .  S
O814       Zr823   2.369       .  S
O814        H839   0.965       .  S
C815       C2037   1.528       .  S
C816       C1765   1.458       .  S
C817       C1685   1.491       .  S
O818        H854   0.991       .  S
O819        C821   1.263       .  A
O820        C821   1.278       .  A
C821       C1698   1.456       .  S
O822      Zr2919   2.440       .  S
O822        H851   0.990       .  S
Zr823       O826   2.438   1_554  S
Zr823       O827   2.437       .  S
Zr823      O2918   2.440   1_554  S
Zr823       O828   2.436       .  S
O824        C829   1.329       .  A
O825        H842   0.989       .  S
O825        H857   0.988       .  S
O826       H2939   0.990       .  S
O827        H847   0.990   1_554  S
O827        H856   0.990       .  S
O828        C829   1.281       .  A
C829       C1080   1.566       .  S
O830        H849   0.987       .  S
O830        H853   0.991       .  S
O831        H845   0.990       .  S
O831        H852   0.990       .  S
O832        C836   1.251       .  A
O833        C836   1.284       .  A
O834        H844   0.990       .  S
O835        H848   0.990       .  S
C836       C1147   1.471       .  S
H843       O2922   0.990       .  S
Zr859       O860   2.437       .  S
Zr859       O861   2.475       .  S
Zr859       O862   2.444       .  S
Zr859       O865   2.369       .  S
Zr859       O867   2.380       .  S
Zr859       O868   2.399       .  S
Zr859       O869   2.411       .  S
Zr859       O870   2.427       .  S
O860        H916   0.990       .  S
O860        H924   0.987       .  S
O861        C881   1.292       .  A
O862        C883   1.275       .  A
O863       Zr873   2.489       .  S
O863        C882   1.295       .  A
O864       Zr872   2.406       .  S
O864        C883   1.270       .  A
O865        C882   1.276       .  A
O866       Zr874   2.488       .  S
O866       C2977   1.292       .  A
O867       Zr872   2.397       .  S
O867      Zr2970   2.375       .  S
O868       Zr873   2.427       .  S
O868      Zr2970   2.335       .  S
O868        H903   0.965       .  S
O869       Zr872   2.388       .  S
O869       Zr889   2.371       .  S
O869        H906   0.959       .  S
O870       Zr873   2.419       .  S
O870       Zr889   2.398       .  S
Zr871      O2992   2.449       .  S
Zr871       O890   2.637       .  S
Zr871       O886   2.414       .  S
Zr871      O2994   2.358       .  S
Zr871       O878   2.426       .  S
Zr871       O879   2.355       .  S
Zr871       O880   2.381       .  S
Zr871      O2973   2.441       .  S
Zr872       O891   2.434       .  S
Zr872       O884   2.433       .  S
Zr872       O885   2.404       .  S
Zr872       O878   2.370       .  S
Zr872       O879   2.411       .  S
Zr873       O875   2.434       .  S
Zr873      O2993   2.436   1_554  S
Zr873      O2995   2.531       .  S
Zr873       O880   2.417       .  S
Zr873      O2973   2.388       .  S
Zr874       O900   2.437       .  S
Zr874       O901   2.436       .  S
Zr874       O876   2.436       .  S
Zr874       O877   2.429       .  S
Zr874      O2963   2.374       .  S
Zr874      O2964   2.335       .  S
Zr874      O2974   2.385       .  S
O875        H912   0.990       .  S
O876        H907   0.990       .  S
O876        H921   0.990       .  S
O877      Zr2967   2.441       .  S
O877      Zr2969   2.388       .  S
O878      Zr2970   2.385       .  S
O878       H3000   0.963       .  S
O879       Zr889   2.412       .  S
O880       Zr889   2.361       .  S
O880        H905   0.965       .  S
C881       O2962   1.292       .  A
C881       C2018   1.522       .  S
C882       C1842   1.477   1_545  S
C883       C1666   1.495       .  S
O884        H920   0.991       .  S
O885        C887   1.276       .  A
O886        C887   1.282       .  A
C887       C1701   1.477       .  S
O888       Zr889   2.437       .  S
O888        H917   0.990       .  S
Zr889       O892   2.437       .  S
Zr889       O893   2.440       .  S
Zr889       O894   2.414       .  S
O890        C895   1.328       .  A
O891        H908   0.991       .  S
O891        H923   0.989       .  S
O892        H909   0.990       .  S
O893        H913   0.990       .  S
O893        H922   0.990       .  S
O894        C895   1.276       .  A
C895       C1146   1.559       .  S
O896      Zr2967   2.449       .  S
O896        H915   0.985       .  S
O896        H919   0.992       .  S
O897      Zr2969   2.436       .  S
O897        H911   0.990       .  S
O897        H918   0.990       .  S
O898      Zr2967   2.358       .  S
O898        C902   1.254       .  A
O899      Zr2969   2.530       .  S
O899        C902   1.292       .  A
O900        H910   0.990       .  S
O901        H914   0.990       .  S
C902       C3177   1.490       .  S
H904       O2974   0.963       .  S
Zr925       O926   2.473       .  S
Zr925       O927   2.483       .  S
Zr925       O928   2.438   1_655  S
Zr925       O931   2.382       .  S
Zr925       O933   2.384       .  S
Zr925       O934   2.421       .  S
Zr925       O935   2.401       .  S
Zr925       O936   2.427       .  S
O926        H982   0.989       .  S
O926        H990   0.989       .  S
O927        C947   1.290       .  A
O928        C949   1.272       .  A
O929       Zr939   2.466       .  S
O929        C948   1.285       .  A
O930       Zr938   2.371   1_455  S
O930        C949   1.261       .  A
O931        C948   1.260       .  A
O932       Zr940   2.542       .  S
O932        C947   1.304       .  A
O933       Zr938   2.370       .  S
O933       Zr940   2.341       .  S
O934       Zr939   2.445       .  S
O934       Zr940   2.330       .  S
O934        H969   0.965       .  S
O935       Zr938   2.377       .  S
O935       Zr955   2.399       .  S
O935        H972   0.959       .  S
O936       Zr939   2.428       .  S
O936       Zr955   2.390       .  S
Zr937       O962   2.424       .  S
Zr937       O956   2.508       .  S
Zr937       O964   2.333       .  S
Zr937       O952   2.429       .  S
Zr937       O943   2.444       .  S
Zr937       O944   2.420       .  S
Zr937       O945   2.336       .  S
Zr937       O946   2.374       .  S
Zr938       O957   2.435       .  S
Zr938       O950   2.422   1_655  S
Zr938       O951   2.321       .  S
Zr938       O944   2.397       .  S
Zr938       O945   2.395       .  S
Zr939       O941   2.434       .  S
Zr939       O963   2.434       .  S
Zr939       O965   2.556       .  S
Zr939       O943   2.371       .  S
Zr939       O946   2.395       .  S
Zr940       O966   2.437       .  S
Zr940       O967   2.434       .  S
Zr940       O942   2.436       .  S
Zr940       O943   2.437       .  S
Zr940       O944   2.427       .  S
O941        H978   0.990       .  S
O942        H973   0.990   1_655  S
O942        H987   0.990   1_655  S
O944        H970   0.968       .  S
O945       Zr955   2.388       .  S
O946       Zr955   2.387       .  S
O946        H971   0.965       .  S
C947       C1922   1.542   1_655  S
C948       C1813   1.480   1_545  S
C949       C1637   1.474       .  S
O950        H986   0.991       .  S
O951        C953   1.250       .  A
O952        C953   1.272       .  A
C953       C1650   1.441       .  S
O954       Zr955   2.440       .  S
O954        H983   0.990       .  S
Zr955       O958   2.439       .  S
Zr955       O959   2.436       .  S
Zr955       O960   2.424       .  S
O956        C961   1.300       .  A
O957        H974   0.989       .  S
O957        H989   0.989       .  S
O958        H975   0.990       .  S
O959        H979   0.990       .  S
O959        H988   0.990       .  S
O960        C961   1.278       .  A
C961       C1166   1.497       .  S
O962        H981   0.990       .  S
O962        H985   0.990       .  S
O963        H977   0.990       .  S
O963        H984   0.990       .  S
O964        C968   1.260       .  A
O965        C968   1.304       .  A
O966        H976   0.990       .  S
O967        H980   0.990       .  S
C968       C1085   1.485       .  S
Zr991       O992   2.430       .  S
Zr991       O993   2.461       .  S
Zr991       O994   2.459       .  S
Zr991       O997   2.383       .  S
Zr991       O999   2.355       .  S
Zr991      O1000   2.397       .  S
Zr991      O1001   2.429       .  S
Zr991      O1002   2.438       .  S
O992       H1048   0.990       .  S
O992       H1056   0.989       .  S
O993       C1013   1.286       .  A
O994       C1015   1.279       .  A
O995      Zr1005   2.430       .  S
O995       C1014   1.284       .  A
O996      Zr1004   2.378   1_455  S
O996       C1015   1.262   1_455  A
O997       C1014   1.281       .  A
O998      Zr1006   2.509       .  S
O998       C1013   1.296       .  A
O999      Zr1004   2.407       .  S
O999      Zr1006   2.368       .  S
O1000     Zr1005   2.427       .  S
O1000     Zr1006   2.336       .  S
O1000      H1035   0.966       .  S
O1001     Zr1004   2.401       .  S
O1001     Zr1021   2.385       .  S
O1001      H1038   0.964       .  S
O1002     Zr1005   2.432       .  S
O1002     Zr1021   2.404       .  S
Zr1003     O1028   2.432       .  S
Zr1003     O1022   2.546       .  S
Zr1003     O1030   2.351       .  S
Zr1003     O1018   2.476       .  S
Zr1003     O1009   2.449       .  S
Zr1003     O1010   2.407       .  S
Zr1003     O1011   2.339       .  S
Zr1003     O1012   2.366       .  S
Zr1004     O1023   2.449       .  S
Zr1004     O1016   2.445   1_655  S
Zr1004     O1017   2.349       .  S
Zr1004     O1010   2.399       .  S
Zr1004     O1011   2.399       .  S
Zr1005     O1007   2.435       .  S
Zr1005     O1029   2.436       .  S
Zr1005     O1031   2.515       .  S
Zr1005     O1009   2.376       .  S
Zr1005     O1012   2.389       .  S
Zr1006     O1032   2.436       .  S
Zr1006     O1033   2.435       .  S
Zr1006     O1008   2.436   1_655  S
Zr1006     O1009   2.448       .  S
Zr1006     O1010   2.382       .  S
O1007      H1044   0.990       .  S
O1008      H1039   0.990       .  S
O1008      H1053   0.990       .  S
O1010      H1036   0.961       .  S
O1011     Zr1021   2.401       .  S
O1012     Zr1021   2.370       .  S
O1012      H1037   0.966       .  S
C1013      C1874   1.541   1_655  S
C1014      C1733   1.463       .  S
C1015      C1618   1.470   1_655  S
O1016      H1052   0.989       .  S
O1017      C1019   1.265       .  A
O1018      C1019   1.296       .  A
C1019      C1653   1.450       .  S
O1020     Zr1021   2.437       .  S
O1020      H1049   0.990       .  S
Zr1021     O1024   2.439       .  S
Zr1021     O1025   2.437       .  S
Zr1021     O1026   2.425       .  S
O1022      C1027   1.307       .  A
O1023      H1040   0.989       .  S
O1023      H1055   0.989       .  S
O1024      H1041   0.990       .  S
O1025      H1045   0.990       .  S
O1025      H1054   0.990       .  S
O1026      C1027   1.277       .  A
C1027      C1100   1.523       .  S
O1028      H1047   0.990       .  S
O1028      H1051   0.990       .  S
O1029      H1043   0.990       .  S
O1029      H1050   0.990       .  S
O1030      C1034   1.269       .  A
O1031      C1034   1.299       .  A
O1032      H1042   0.990       .  S
O1033      H1046   0.990       .  S
C1034      C1151   1.482       .  S
Zr1057     O1058   2.400       .  S
Zr1057     O3155   2.400       .  S
Zr1057     O3156   2.519       .  S
Zr1057     O3159   2.479       .  S
Zr1057     O1065   2.372       .  S
Zr1057     O1066   2.384       .  S
Zr1057     O1067   2.406       .  S
Zr1057     O1068   2.417       .  S
O1058      H1122   0.989       .  S
O1058      H3210   0.986       .  S
O1059     Zr3153   2.400   1_554  S
O1059      C1079   1.278       .  A
O1060     Zr3153   2.519   1_554  S
O1060      C1081   1.303       .  A
O1061     Zr1071   2.601       .  S
O1061      C3176   1.322       .  A
O1062     Zr1070   2.409       .  S
O1062      C3177   1.274       .  A
O1063     Zr3153   2.478   1_554  S
O1063      C1080   1.289       .  A
O1064     Zr1072   2.389   1_554  S
O1064      C1079   1.274       .  A
O1065     Zr1070   2.411       .  S
O1065     Zr3168   2.389       .  S
O1066     Zr1071   2.372       .  S
O1066     Zr3168   2.389       .  S
O1066      H3197   0.964       .  S
O1067     Zr1070   2.412       .  S
O1067     Zr1087   2.414       .  S
O1067      H1104   0.965       .  S
O1068     Zr1071   2.403       .  S
O1068     Zr1087   2.412       .  S
Zr1069     O1094   2.434       .  S
Zr1069     O1088   2.422       .  S
Zr1069     O1096   2.422       .  S
Zr1069     O1084   2.484       .  S
Zr1069     O1075   2.400       .  S
Zr1069     O1076   2.384       .  S
Zr1069     O1077   2.366       .  S
Zr1069     O1078   2.398       .  S
Zr1070     O1089   2.438       .  S
Zr1070     O1082   2.434       .  S
Zr1070     O1083   2.427       .  S
Zr1070     O1076   2.391       .  S
Zr1070     O1077   2.397       .  S
Zr1071     O1073   2.434       .  S
Zr1071     O1095   2.436       .  S
Zr1071     O1097   2.567       .  S
Zr1071     O1075   2.405       .  S
Zr1071     O1078   2.396       .  S
Zr1072     O1098   2.436   1_556  S
Zr1072     O1099   2.439       .  S
Zr1072     O1074   2.439   1_556  S
Zr1072     O3161   2.389       .  S
Zr1072     O3162   2.389       .  S
Zr1072     O3171   2.383       .  S
Zr1072     O3172   2.390       .  S
O1073      H1110   0.990       .  S
O1074      H1105   0.990       .  S
O1074      H1119   0.990       .  S
O1075     Zr3168   2.382       .  S
O1076     Zr3168   2.390       .  S
O1076      H1102   0.965       .  S
O1077     Zr1087   2.383       .  S
O1078     Zr1087   2.372       .  S
O1078      H1103   0.966       .  S
C1079      C1145   1.432       .  S
C1080      O3157   1.322   1_554  A
C1081      O3158   1.274   1_554  A
C1081      C2998   1.490       .  S
O1082      H3214   0.990       .  S
O1083      C1085   1.278       .  A
O1084      C1085   1.300       .  A
O1086     Zr1087   2.440       .  S
O1086      H1115   0.990       .  S
Zr1087     O1090   2.438       .  S
Zr1087     O1091   2.438       .  S
Zr1087     O1092   2.462       .  S
O1088      C1093   1.287       .  A
O1089      H1106   0.990       .  S
O1089      H1121   0.990       .  S
O1090      H1107   0.990       .  S
O1091      H1111   0.990       .  S
O1091      H1120   0.990       .  S
O1092      C1093   1.288       .  A
C1093      C1159   1.482       .  S
O1094      H1113   0.991       .  S
O1094      H1117   0.990       .  S
O1095      H1109   0.990       .  S
O1095      H3212   0.990       .  S
O1096      C1100   1.283       .  A
O1097      C1100   1.316       .  A
O1098      H1108   0.990       .  S
O1099      H3208   0.990       .  S
H1101      O3162   0.964   1_554  S
H1112      O3195   0.990       .  S
H1114      O3154   0.986       .  S
H1116      O3191   0.990   1_554  S
H1118      O3178   0.990       .  S
Zr1123     O1124   2.408       .  S
Zr1123     O1125   2.402       .  S
Zr1123     O1126   2.492       .  S
Zr1123     O1129   2.475       .  S
Zr1123     O1131   2.378       .  S
Zr1123     O1132   2.381       .  S
Zr1123     O1133   2.411       .  S
Zr1123     O1134   2.415       .  S
O1124      H1180   0.987       .  S
O1124      H1188   0.990       .  S
O1125      C1145   1.279       .  A
O1126      C1147   1.298       .  A
O1127     Zr1137   2.588       .  S
O1127      C1146   1.319       .  A
O1128     Zr1136   2.399       .  S
O1128      C1147   1.272       .  A
O1129      C1146   1.287       .  A
O1130     Zr1138   2.383       .  S
O1130      C1145   1.273       .  A
O1131     Zr1136   2.413       .  S
O1131     Zr1138   2.390       .  S
O1132     Zr1137   2.366       .  S
O1132     Zr1138   2.388       .  S
O1132      H1167   0.965       .  S
O1133     Zr1136   2.415       .  S
O1133     Zr1153   2.415       .  S
O1133      H1170   0.965       .  S
O1134     Zr1137   2.398       .  S
O1134     Zr1153   2.419       .  S
Zr1135     O1160   2.429       .  S
Zr1135     O1154   2.403       .  S
Zr1135     O1162   2.392       .  S
Zr1135     O1150   2.456       .  S
Zr1135     O1141   2.400       .  S
Zr1135     O1142   2.377       .  S
Zr1135     O1143   2.357       .  S
Zr1135     O1144   2.392       .  S
Zr1136     O1155   2.438       .  S
Zr1136     O1148   2.435       .  S
Zr1136     O1149   2.432       .  S
Zr1136     O1142   2.386       .  S
Zr1136     O1143   2.398       .  S
Zr1137     O1139   2.434       .  S
Zr1137     O1161   2.435       .  S
Zr1137     O1163   2.542       .  S
Zr1137     O1141   2.409       .  S
Zr1137     O1144   2.397       .  S
Zr1138     O1164   2.434       .  S
Zr1138     O1165   2.438       .  S
Zr1138     O1140   2.437       .  S
Zr1138     O1141   2.379       .  S
Zr1138     O1142   2.384       .  S
O1139      H1176   0.990       .  S
O1140      H1171   0.990       .  S
O1140      H1185   0.990       .  S
O1142      H1168   0.965       .  S
O1143     Zr1153   2.381       .  S
O1144     Zr1153   2.365       .  S
O1144      H1169   0.966       .  S
O1148      H1184   0.990       .  S
O1149      C1151   1.279       .  A
O1150      C1151   1.294       .  A
O1152     Zr1153   2.440       .  S
O1152      H1181   0.990       .  S
Zr1153     O1156   2.438       .  S
Zr1153     O1157   2.438       .  S
Zr1153     O1158   2.477       .  S
O1154      C1159   1.281       .  A
O1155      H1172   0.990       .  S
O1155      H1187   0.990       .  S
O1156      H1173   0.990       .  S
O1157      H1177   0.990       .  S
O1157      H1186   0.990       .  S
O1158      C1159   1.291       .  A
O1160      H1179   0.990       .  S
O1160      H1183   0.990       .  S
O1161      H1175   0.990       .  S
O1161      H1182   0.990       .  S
O1162      C1166   1.278       .  A
O1163      C1166   1.309       .  A
O1164      H1174   0.990       .  S
O1165      H1178   0.990       .  S
Zr1189     O1190   2.419       .  S
Zr1189     O1191   2.420       .  S
Zr1189     O1192   2.419       .  S
Zr1189     O1195   2.435       .  S
Zr1189     O1197   2.388       .  S
Zr1189     O1198   2.381       .  S
Zr1189     O1199   2.439       .  S
Zr1189     O1200   2.386       .  S
O1190      H1246   0.987       .  S
O1190      H1254   0.986       .  S
O1191      C1211   1.279       .  A
O1192      C1213   1.269       .  A
O1193     Zr1203   2.403       .  S
O1193      C1212   1.266       .  A
O1194     Zr1202   2.447       .  S
O1194      C1213   1.276       .  A
O1195      C1212   1.279       .  A
O1196     Zr1204   2.518       .  S
O1196      C1211   1.298       .  A
O1197     Zr1202   2.429       .  S
O1197     Zr1204   2.361       .  S
O1198     Zr1203   2.409       .  S
O1198     Zr1204   2.358       .  S
O1198      H1233   0.966       .  S
O1199     Zr1202   2.444       .  S
O1199     Zr1219   2.382       .  S
O1199      H1236   0.960       .  S
O1200     Zr1203   2.376       .  S
O1200     Zr1219   2.365       .  S
Zr1201     O1226   2.437       .  S
Zr1201     O1220   2.585       .  S
Zr1201     O1228   2.440       .  S
Zr1201     O1216   2.333       .  S
Zr1201     O1207   2.407       .  S
Zr1201     O1208   2.464       .  S
Zr1201     O1209   2.377       .  S
Zr1201     O1210   2.337       .  S
Zr1202     O1221   2.440       .  S
Zr1202     O1214   2.434       .  S
Zr1202     O1215   2.505       .  S
Zr1202     O1208   2.397       .  S
Zr1202     O1209   2.401       .  S
Zr1203     O1205   2.447       .  S
Zr1203     O1227   2.450       .  S
Zr1203     O1229   2.385       .  S
Zr1203     O1207   2.360       .  S
Zr1203     O1210   2.413       .  S
Zr1204     O1230   2.435       .  S
Zr1204     O1231   2.437       .  S
Zr1204     O1206   2.437       .  S
Zr1204     O1207   2.419       .  S
Zr1204     O1208   2.427       .  S
O1205      H1242   0.987       .  S
O1206      H1237   0.990       .  S
O1206      H1251   0.990       .  S
O1208      H1234   0.966       .  S
O1209     Zr1219   2.374       .  S
O1210     Zr1219   2.393       .  S
O1210      H1235   0.964       .  S
C1211      C1829   1.510       .  S
C1212      C2005   1.471       .  S
C1213      C1669   1.482       .  S
O1214      H1250   0.990       .  S
O1215      C1217   1.290       .  A
O1216      C1217   1.253       .  A
C1217      C1496   1.456       .  S
O1218     Zr1219   2.439       .  S
O1218      H1247   0.990       .  S
Zr1219     O1222   2.436       .  S
Zr1219     O1223   2.441       .  S
Zr1219     O1224   2.397       .  S
O1220      C1225   1.318       .  A
O1221      H1238   0.990       .  S
O1221      H1253   0.990       .  S
O1222      H1239   0.990       .  S
O1223      H1243   0.990       .  S
O1223      H1252   0.990       .  S
O1224      C1225   1.274       .  A
C1225      C1543   1.527       .  S
O1226      H1245   0.990       .  S
O1226      H1249   0.984       .  S
O1227      H1241   0.990       .  S
O1227      H1248   0.990   1_545  S
O1228      C1232   1.284       .  A
O1229      C1232   1.267       .  A
O1230      H1240   0.990       .  S
O1231      H1244   0.990       .  S
C1232      C1605   1.447       .  S
Zr1255     O1256   2.428       .  S
Zr1255     O1257   2.430       .  S
Zr1255     O1258   2.430       .  S
Zr1255     O1261   2.432       .  S
Zr1255     O1263   2.365       .  S
Zr1255     O1264   2.384       .  S
Zr1255     O1265   2.411       .  S
Zr1255     O1266   2.341       .  S
O1256      H1312   0.985       .  S
O1256      H1320   0.985       .  S
O1257      C1277   1.280       .  A
O1258      C1279   1.272       .  A
O1259     Zr1269   2.339       .  S
O1259      C1278   1.261       .  A
O1260     Zr1268   2.428       .  S
O1260      C1279   1.275       .  A
O1261      C1278   1.275       .  A
O1262     Zr1270   2.553       .  S
O1262      C1277   1.305       .  A
O1263     Zr1268   2.436       .  S
O1263     Zr1270   2.377       .  S
O1264     Zr1269   2.378       .  S
O1264     Zr1270   2.375       .  S
O1264      H1299   0.965       .  S
O1265     Zr1268   2.458       .  S
O1265     Zr1285   2.405       .  S
O1265      H1302   0.958       .  S
O1266     Zr1269   2.346       .  S
O1266     Zr1285   2.400       .  S
Zr1267     O1292   2.438       .  S
Zr1267     O1286   2.555       .  S
Zr1267     O1294   2.411       .  S
Zr1267     O1282   2.350       .  S
Zr1267     O1273   2.445       .  S
Zr1267     O1274   2.444       .  S
Zr1267     O1275   2.371       .  S
Zr1267     O1276   2.369       .  S
Zr1268     O1287   2.437       .  S
Zr1268     O1280   2.436       .  S
Zr1268     O1281   2.485       .  S
Zr1268     O1274   2.400       .  S
Zr1268     O1275   2.412       .  S
Zr1269     O1271   2.425       .  S
Zr1269     O1293   2.438       .  S
Zr1269     O1295   2.369       .  S
Zr1269     O1273   2.350       .  S
Zr1269     O1276   2.407       .  S
Zr1270     O1296   2.434       .  S
Zr1270     O1297   2.436       .  S
Zr1270     O1272   2.439       .  S
Zr1270     O1273   2.446       .  S
Zr1270     O1274   2.463       .  S
O1271      H1308   0.990       .  S
O1272      H1303   0.990       .  S
O1272      H1317   0.990       .  S
O1274      H1300   0.966       .  S
O1275     Zr1285   2.358       .  S
O1276     Zr1285   2.402       .  S
O1276      H1301   0.965       .  S
C1277      C1797   1.534       .  S
C1278      C1941   1.456       .  S
C1279      C1634   1.460       .  S
O1280      H1316   0.990       .  S
O1281      C1283   1.292       .  A
O1282      C1283   1.271       .  A
C1283      C1542   1.467       .  S
O1284     Zr1285   2.440       .  S
O1284      H1313   0.990       .  S
Zr1285     O1288   2.440       .  S
Zr1285     O1289   2.446       .  S
Zr1285     O1290   2.407       .  S
O1286      C1291   1.309       .  A
O1287      H1304   0.990       .  S
O1287      H1319   0.990       .  S
O1288      H1305   0.990       .  S
O1289      H1309   0.990       .  S
O1289      H1318   0.989       .  S
O1290      C1291   1.274       .  A
C1291      C1481   1.519       .  S
O1292      H1311   0.990       .  S
O1292      H1315   0.988       .  S
O1293      H1307   0.990   1_545  S
O1293      H1314   0.989       .  S
O1294      C1298   1.280       .  A
O1295      C1298   1.266       .  A
O1296      H1306   0.990       .  S
O1297      H1310   0.990       .  S
C1298      C1602   1.436       .  S
Zr1321     O3418   2.429       .  S
Zr1321     O1323   2.472       .  S
Zr1321     O1324   2.428       .  S
Zr1321     O1327   2.469       .  S
Zr1321     O1329   2.399       .  S
Zr1321     O1330   2.385       .  S
Zr1321     O1331   2.472       .  S
Zr1321     O1332   2.429       .  S
O1322     Zr3417   2.429       .  S
O1322      H1378   0.987       .  S
O1322      H1386   0.985   1_556  S
O1323      C1343   1.289       .  A
O1324      C1345   1.268       .  A
O1325     Zr1335   2.398       .  S
O1325      C1344   1.276       .  A
O1326     Zr1334   2.482       .  S
O1326      C1345   1.285       .  A
O1327      C1344   1.286       .  A
O1328     Zr1336   2.521       .  S
O1328      C1343   1.300       .  A
O1329     Zr1334   2.432       .  S
O1329     Zr1336   2.378       .  S
O1330     Zr1335   2.336       .  S
O1330     Zr1336   2.378       .  S
O1330      H1365   0.964       .  S
O1331     Zr1334   2.452       .  S
O1331     Zr1351   2.387       .  S
O1331      H1368   0.951       .  S
O1332     Zr1335   2.386       .  S
O1332     Zr1351   2.382       .  S
Zr1333     O1358   2.436       .  S
Zr1333     O1352   2.532       .  S
Zr1333     O1360   2.412       .  S
Zr1333     O1348   2.327       .  S
Zr1333     O1339   2.440       .  S
Zr1333     O1340   2.429       .  S
Zr1333     O1341   2.383       .  S
Zr1333     O1342   2.273       .  S
Zr1334     O1353   2.437       .  S
Zr1334     O1346   2.435       .  S
Zr1334     O1347   2.506       .  S
Zr1334     O1340   2.425       .  S
Zr1334     O1341   2.429       .  S
Zr1335     O1359   2.437       .  S
Zr1335     O3433   2.420       .  S
Zr1335     O1361   2.365       .  S
Zr1335     O1339   2.397       .  S
Zr1335     O1342   2.350       .  S
Zr1336     O1362   2.434       .  S
Zr1336     O1363   2.436       .  S
Zr1336     O1338   2.439       .  S
Zr1336     O1339   2.454       .  S
Zr1336     O1340   2.453       .  S
O1337     Zr3431   2.420   1_554  S
O1337      H3470   0.990       .  S
O1338      H1369   0.990       .  S
O1338      H1383   0.990       .  S
O1340      H1366   0.966       .  S
O1341     Zr1351   2.375       .  S
O1342     Zr1351   2.344       .  S
O1342      H1367   0.960       .  S
C1343      C1746   1.526       .  S
C1344      C4165   1.454       .  S
C1345      C1682   1.484       .  S
O1346      H1382   0.990       .  S
O1347      C1349   1.298       .  A
O1348      C1349   1.266       .  A
C1349      C1476   1.466       .  S
O1350     Zr3447   2.438       .  S
O1350      H1379   0.990       .  S
Zr1351     O3446   2.439       .  S
Zr1351     O3450   2.439       .  S
Zr1351     O3451   2.439       .  S
Zr1351     O1356   2.425       .  S
O1352      C1357   1.303       .  A
O1353      H1370   0.990       .  S
O1353      H1385   0.990       .  S
O1354     Zr3447   2.439       .  S
O1354      H1371   0.990       .  S
O1355     Zr3447   2.439       .  S
O1355      H1375   0.990       .  S
O1355      H1384   0.988       .  S
O1356      C1357   1.277       .  A
C1357      C3643   1.519       .  S
O1358      H1377   0.990       .  S
O1358      H1381   0.990       .  S
O1359      H1373   0.990       .  S
O1359      H1380   0.990       .  S
O1360      C1364   1.276       .  A
O1361      C1364   1.266       .  A
O1362      H1372   0.990       .  S
O1363      H1376   0.990       .  S
C1364      C1586   1.443       .  S
H1374      O3433   0.990       .  S
Zr1387     O1388   2.434       .  S
Zr1387     O1389   2.449       .  S
Zr1387     O1390   2.405       .  S
Zr1387     O1393   2.461       .  S
Zr1387     O1395   2.389       .  S
Zr1387     O1396   2.382       .  S
Zr1387     O1397   2.456       .  S
Zr1387     O1398   2.391       .  S
O1388      H1444   0.986       .  S
O1388      H1452   0.987       .  S
O1389      C1409   1.289       .  A
O1390      C1411   1.263       .  A
O1391     Zr1401   2.366       .  S
O1391      C1410   1.257       .  A
O1392     Zr1400   2.491       .  S
O1392      C1411   1.282       .  A
O1393      C1410   1.274       .  A
O1394     Zr1402   2.546       .  S
O1394      C3505   1.304       .  A
O1395     Zr1400   2.434       .  S
O1395     Zr3498   2.326       .  S
O1396     Zr1401   2.409       .  S
O1396     Zr3498   2.372       .  S
O1396      H1431   0.963       .  S
O1397     Zr1400   2.450       .  S
O1397     Zr1417   2.405       .  S
O1397      H1434   0.966       .  S
O1398     Zr1401   2.374       .  S
O1398     Zr1417   2.365       .  S
Zr1399     O3520   2.395       .  S
Zr1399     O1418   2.541       .  S
Zr1399     O1426   2.388       .  S
Zr1399     O3510   2.318       .  S
Zr1399     O1405   2.385       .  S
Zr1399     O1407   2.368       .  S
Zr1399     O1408   2.330       .  S
Zr1399     O3502   2.454       .  S
Zr1400     O1419   2.436       .  S
Zr1400     O3508   2.434       .  S
Zr1400     O3509   2.570       .  S
Zr1400     O1407   2.391       .  S
Zr1400     O3502   2.383       .  S
Zr1401     O1403   2.436       .  S
Zr1401     O1425   2.421       .  S
Zr1401     O1427   2.412       .  S
Zr1401     O1405   2.347       .  S
Zr1401     O1408   2.378       .  S
Zr1402     O1428   2.435       .  S
Zr1402     O1429   2.436       .  S
Zr1402     O1404   2.436       .  S
Zr1402     O1406   2.442       .  S
Zr1402     O3491   2.326   1_554  S
Zr1402     O3492   2.372   1_554  S
Zr1402     O3501   2.432   1_554  S
O1403      H1440   0.989       .  S
O1404      H1435   0.990       .  S
O1404      H1449   0.990       .  S
O1405     Zr3498   2.432       .  S
O1406     Zr3495   2.454   1_554  S
O1406     Zr3496   2.382   1_554  S
O1406      H1432   0.965       .  S
O1407     Zr1417   2.375       .  S
O1408     Zr1417   2.416       .  S
O1408      H1433   0.966       .  S
C1409      O3490   1.304       .  A
C1409      C1717   1.540       .  S
C1410      C1906   1.453       .  S
C1411      C1621   1.496       .  S
O1412     Zr3496   2.434   1_554  S
O1412      H1448   0.990       .  S
O1413     Zr3496   2.569   1_554  S
O1413      C1415   1.308       .  A
O1414     Zr3495   2.318   1_554  S
O1414      C1415   1.252       .  A
C1415      C1562   1.485       .  S
O1416     Zr1417   2.439       .  S
O1416      H1445   0.990       .  S
Zr1417     O1420   2.437       .  S
Zr1417     O1421   2.440       .  S
Zr1417     O1422   2.419       .  S
O1418      C1423   1.304       .  A
O1419      H1436   0.990       .  S
O1419      H1451   0.990       .  S
O1420      H1437   0.990       .  S
O1421      H1441   0.990       .  S
O1421      H1450   0.990       .  S
O1422      C1423   1.277       .  A
C1423      C1477   1.516       .  S
O1424     Zr3495   2.396       .  S
O1424      H1443   0.991   1_556  S
O1424      H1447   0.986       .  S
O1425      H1439   0.987       .  S
O1425      H1446   0.989       .  S
O1426      C1430   1.270       .  A
O1427      C1430   1.272       .  A
O1428      H1438   0.990       .  S
O1429      H1442   0.990       .  S
C1430      C1589   1.475       .  S
Zr1453     O1454   2.442       .  S
Zr1453     O1455   2.410       .  S
Zr1453     O1456   2.432       .  S
Zr1453     O1459   2.443       .  S
Zr1453     O1461   2.384       .  S
Zr1453     O1462   2.368       .  S
Zr1453     O1463   2.408       .  S
Zr1453     O1464   2.391       .  S
O1454      H1510   0.990       .  S
O1454      H1518   0.990       .  S
O1455      C1475   1.282       .  A
O1456      C1477   1.282       .  A
O1457     Zr1467   2.403       .  S
O1457      C1476   1.273       .  A
O1458     Zr1466   2.544       .  S
O1458      C1477   1.309       .  A
O1459      C1476   1.291       .  A
O1460     Zr1468   2.440       .  S
O1460      C1475   1.282       .  A
O1461     Zr1466   2.401       .  S
O1461     Zr1468   2.383       .  S
O1462     Zr1467   2.398       .  S
O1462     Zr1468   2.379       .  S
O1462      H1497   0.966       .  S
O1463     Zr1466   2.412       .  S
O1463     Zr1483   2.389       .  S
O1463      H1500   0.965       .  S
O1464     Zr1467   2.395       .  S
O1464     Zr1483   2.402       .  S
Zr1465     O1490   2.451       .  S
Zr1465     O1484   2.371       .  S
Zr1465     O1492   2.453       .  S
Zr1465     O1480   2.443       .  S
Zr1465     O1471   2.393       .  S
Zr1465     O1472   2.412       .  S
Zr1465     O1473   2.385       .  S
Zr1465     O1474   2.373       .  S
Zr1466     O1485   2.434       .  S
Zr1466     O1478   2.434       .  S
Zr1466     O1479   2.540       .  S
Zr1466     O1472   2.417       .  S
Zr1466     O1473   2.402       .  S
Zr1467     O1469   2.436       .  S
Zr1467     O1491   2.437       .  S
Zr1467     O1493   2.389       .  S
Zr1467     O1471   2.408       .  S
Zr1467     O1474   2.403       .  S
Zr1468     O1494   2.435       .  S
Zr1468     O1495   2.436       .  S
Zr1468     O1470   2.436       .  S
Zr1468     O1471   2.408       .  S
Zr1468     O1472   2.392       .  S
O1469      H1506   0.990       .  S
O1470      H1501   0.990       .  S
O1470      H1515   0.990       .  S
O1472      H1498   0.965       .  S
O1473     Zr1483   2.383       .  S
O1474     Zr1483   2.381       .  S
O1474      H1499   0.966       .  S
C1475      C1555   1.472       .  S
O1478      H1514   0.990       .  S
O1479      C1481   1.309       .  A
O1480      C1481   1.281       .  A
O1482     Zr1483   2.439       .  S
O1482      H1511   0.990       .  S
Zr1483     O1486   2.437       .  S
Zr1483     O1487   2.439       .  S
Zr1483     O1488   2.428       .  S
O1484      C1489   1.270       .  A
O1485      H1502   0.990       .  S
O1485      H1517   0.990       .  S
O1486      H1503   0.990       .  S
O1487      H1507   0.990       .  S
O1487      H1516   0.990       .  S
O1488      C1489   1.279       .  A
C1489      C1541   1.455       .  S
O1490      H1509   0.990       .  S
O1490      H1513   0.990       .  S
O1491      H1505   0.990       .  S
O1491      H1512   0.990       .  S
O1492      C1496   1.291       .  A
O1493      C1496   1.267       .  A
O1494      H1504   0.990       .  S
O1495      H1508   0.990       .  S
Zr1519     O1520   2.433       .  S
Zr1519     O1521   2.404       .  S
Zr1519     O1522   2.429       .  S
Zr1519     O1525   2.412       .  S
Zr1519     O1527   2.374       .  S
Zr1519     O1528   2.368       .  S
Zr1519     O1529   2.402       .  S
Zr1519     O1530   2.394       .  S
O1520      H1576   0.990       .  S
O1520      H1584   0.990       .  S
O1521      C1541   1.282       .  A
O1522      C1543   1.277       .  A
O1523     Zr1533   2.428       .  S
O1523      C1542   1.278       .  A
O1524     Zr1532   2.566       .  S
O1524      C1543   1.314       .  A
O1525      C1542   1.284       .  A
O1526     Zr1534   2.407       .  S
O1526      C1541   1.276       .  A
O1527     Zr1532   2.387       .  S
O1527     Zr1534   2.391       .  S
O1528     Zr1533   2.394       .  S
O1528     Zr1534   2.385       .  S
O1528      H1563   0.966       .  S
O1529     Zr1532   2.400       .  S
O1529     Zr1549   2.406       .  S
O1529      H1566   0.966       .  S
O1530     Zr1533   2.393       .  S
O1530     Zr1549   2.408       .  S
Zr1531     O1556   2.441   1_554  S
Zr1531     O1558   2.513       .  S
Zr1531     O1546   2.463       .  S
Zr1531     O3646   2.394   1_554  S
Zr1531     O1537   2.388       .  S
Zr1531     O1538   2.413       .  S
Zr1531     O1539   2.390       .  S
Zr1531     O1540   2.376       .  S
Zr1532     O1551   2.434       .  S
Zr1532     O1544   2.434       .  S
Zr1532     O1545   2.518       .  S
Zr1532     O1538   2.426       .  S
Zr1532     O1539   2.414       .  S
Zr1533     O1535   2.434       .  S
Zr1533     O1557   2.439       .  S
Zr1533     O1559   2.394       .  S
Zr1533     O1537   2.416       .  S
Zr1533     O1540   2.411       .  S
Zr1534     O1560   2.435       .  S
Zr1534     O1561   2.437       .  S
Zr1534     O1536   2.437       .  S
Zr1534     O1537   2.395       .  S
Zr1534     O1538   2.381       .  S
O1535      H1572   0.990       .  S
O1536      H1567   0.990       .  S
O1536      H1581   0.990       .  S
O1538      H1564   0.965       .  S
O1539     Zr1549   2.375       .  S
O1540     Zr1549   2.385       .  S
O1540      H1565   0.966       .  S
O1544      H1580   0.990       .  S
O1545      C1547   1.303       .  A
O1546      C1547   1.282       .  A
C1547      C3453   1.518       .  S
O1548     Zr1549   2.439       .  S
O1548      H1577   0.990       .  S
Zr1549     O1552   2.437       .  S
Zr1549     O3649   2.439       .  S
Zr1549     O3650   2.448   1_554  S
O1550     Zr3627   2.394       .  S
O1550      C1555   1.275       .  A
O1551      H1568   0.990       .  S
O1551      H1583   0.990       .  S
O1552      H3665   0.990       .  S
O1553     Zr3645   2.439       .  S
O1553      H1573   0.990       .  S
O1553      H1582   0.990       .  S
O1554     Zr3645   2.448       .  S
O1554      C1555   1.283       .  A
O1556      H1575   0.991       .  S
O1556      H1579   0.991       .  S
O1557      H1571   0.990       .  S
O1557      H1578   0.990       .  S
O1558      C1562   1.307       .  A
O1559      C1562   1.270       .  A
O1560      H1570   0.990       .  S
O1561      H1574   0.990       .  S
H1569      O3648   0.990       .  S
C1585      C1586   1.400       .  A
C1585      C1590   1.399       .  A
C1585      H1592   1.084       .  S
C1586      C1587   1.400       .  A
C1587      C1588   1.386       .  A
C1587      C1594   1.518       .  S
C1588      C1589   1.414       .  A
C1588      H3689   1.083       .  S
C1589      C1590   1.420       .  A
C1590      C1591   1.518       .  S
C1591      F1595   1.385       .  S
C1591      F1596   1.379       .  S
C1591      F1597   1.382       .  S
H1593      C3684   1.083   1_554  S
C1594      F1598   1.383       .  S
C1594      F1599   1.383       .  S
C1594      F3696   1.383       .  S
F1600      C3690   1.383       .  S
C1601      C1602   1.400       .  A
C1601      C1606   1.394       .  A
C1601      H1608   1.084       .  S
C1602      C1603   1.403       .  A
C1603      C1604   1.393       .  A
C1603      C1610   1.517       .  S
C1604      C1605   1.401       .  A
C1604      H1609   1.077       .  S
C1605      C1606   1.406       .  A
C1606      C1607   1.512       .  S
C1607      F1611   1.385       .  S
C1607      F1612   1.377       .  S
C1607      F1613   1.383       .  S
C1610      F1614   1.382       .  S
C1610      F1615   1.383       .  S
C1610      F1616   1.384       .  S
C1617      C1618   1.409       .  A
C1617      C1622   1.406       .  A
C1617      H1624   1.070   1_455  S
C1618      C1619   1.395       .  A
C1619      C1620   1.403       .  A
C1619      C1626   1.523       .  S
C1620      C1621   1.417       .  A
C1620      H1625   1.058       .  S
C1621      C1622   1.406       .  A
C1622      C1623   1.514       .  S
C1623      F1627   1.383       .  S
C1623      F1629   1.382       .  S
C1623      F3724   1.384       .  S
C1626      F1630   1.381   1_455  S
C1626      F1631   1.384       .  S
C1626      F1632   1.378       .  S
F1628      C3719   1.384       .  S
C1633      C1634   1.396       .  A
C1633      C1638   1.402       .  A
C1633      H1640   1.083       .  S
C1634      C1635   1.403       .  A
C1635      C1636   1.400       .  A
C1635      C1642   1.515       .  S
C1636      C1637   1.408       .  A
C1636      H1641   1.080   1_455  S
C1637      C1638   1.426       .  A
C1638      C1639   1.525       .  S
C1639      F1643   1.373       .  S
C1639      F1644   1.379       .  S
C1639      F1645   1.382       .  S
C1642      F1646   1.382       .  S
C1642      F1647   1.383       .  S
C1642      F1648   1.384   1_455  S
C1649      C1650   1.409       .  A
C1649      C1654   1.383   1_655  A
C1649      H1656   1.085   1_655  S
C1650      C1651   1.420       .  A
C1651      C1652   1.397       .  A
C1651      C1658   1.520       .  S
C1652      C1653   1.397       .  A
C1652      H1657   1.084       .  S
C1653      C1654   1.393   1_655  A
C1654      C1655   1.508       .  S
C1655      F1659   1.383       .  S
C1655      F1660   1.383       .  S
C1655      F1661   1.384       .  S
C1658      F1662   1.378       .  S
C1658      F1663   1.377       .  S
C1658      F1664   1.385       .  S
C1665      C1666   1.407       .  A
C1665      C1670   1.398       .  A
C1665      H1672   1.081       .  S
C1666      C1667   1.427       .  A
C1667      C1668   1.411       .  A
C1667      C1674   1.521       .  S
C1668      C1669   1.405       .  A
C1668      H1673   1.082       .  S
C1669      C1670   1.416       .  A
C1670      C1671   1.518       .  S
C1671      F1675   1.383       .  S
C1671      F1676   1.377       .  S
C1671      F1677   1.381       .  S
C1674      F1678   1.376       .  S
C1674      F1679   1.382       .  S
C1674      F1680   1.384       .  S
C1681      C1686   1.409   1_556  A
C1681      C3778   1.398       .  A
C1681      H1688   1.083   1_556  S
C1682      C1683   1.409       .  A
C1682      C3777   1.398       .  A
C1683      C3780   1.404       .  A
C1683      C1690   1.509       .  S
C1684      C1685   1.410   1_556  A
C1684      C3779   1.405       .  A
C1684      H1689   1.082       .  S
C1685      C1686   1.426       .  A
C1686      C1687   1.520       .  S
C1687      F1691   1.375       .  S
C1687      F1692   1.376       .  S
C1687      F1693   1.384       .  S
C1690      F1694   1.378       .  S
C1690      F1695   1.384       .  S
C1690      F1696   1.383       .  S
C1697      C1698   1.411       .  A
C1697      C1702   1.405       .  A
C1697      H1704   1.082       .  S
C1698      C1699   1.408       .  A
C1699      C1700   1.393       .  A
C1699      C1706   1.516       .  S
C1700      C1701   1.398       .  A
C1700      H1705   1.085       .  S
C1701      C1702   1.409       .  A
C1702      C1703   1.504       .  S
C1703      F1707   1.383       .  S
C1703      F1708   1.382       .  S
C1703      F1709   1.385       .  S
C1706      F1710   1.384       .  S
C1706      F1711   1.373       .  S
C1706      F1712   1.366       .  S
C1713      C1714   1.415       .  A
C1713      C1718   1.436       .  A
C1713      H1720   1.083       .  S
C1714      C3811   1.420       .  A
C1715      C1716   1.429       .  A
C1715      C3810   1.420       .  A
C1715      C1722   1.516   1_455  S
C1716      C1717   1.415       .  A
C1716      H1721   1.078       .  S
C1717      C3814   1.420       .  A
C1718      C3813   1.420       .  A
C1718      C1719   1.514       .  S
C1719      F1723   1.384       .  S
C1719      F1725   1.383       .  S
C1719      F3820   1.383   1_554  S
C1722      F1726   1.382       .  S
C1722      F1728   1.384       .  S
C1722      F3823   1.382       .  S
F1724      C3815   1.383       .  S
F1727      C3818   1.382       .  S
C1729      C1730   1.413       .  A
C1729      C1734   1.408       .  A
C1729      H1736   1.083       .  S
C1730      C1731   1.439       .  A
C1731      C1732   1.412       .  A
C1731      C1738   1.520       .  S
C1732      C1733   1.392       .  A
C1732      H1737   1.084       .  S
C1733      C1734   1.408       .  A
C1734      C1735   1.504       .  S
C1735      F1739   1.383       .  S
C1735      F1740   1.385       .  S
C1735      F1741   1.383       .  S
C1738      F1742   1.373       .  S
C1738      F1743   1.381       .  S
C1738      F1744   1.383       .  S
C1745      C1746   1.407       .  A
C1745      C1750   1.423       .  A
C1745      H1752   1.084       .  S
C1746      C1747   1.430       .  A
C1747      C1748   1.429       .  A
C1747      C1754   1.513       .  S
C1748      C1749   1.408       .  A
C1748      H1753   1.084       .  S
C1749      C1750   1.427       .  A
C1750      C1751   1.513       .  S
C1751      F1755   1.385       .  S
C1751      F1756   1.383       .  S
C1751      F1757   1.379       .  S
C1754      F1758   1.384       .  S
C1754      F1759   1.382       .  S
C1754      F1760   1.382       .  S
C1761      C1762   1.410       .  A
C1761      C1766   1.406       .  A
C1761      H1768   1.084       .  S
C1762      C1763   1.433       .  A
C1763      C1764   1.403       .  A
C1763      C1770   1.525       .  S
C1764      C1765   1.389       .  A
C1764      H1769   1.087       .  S
C1765      C1766   1.409       .  A
C1766      C1767   1.502       .  S
C1767      F1771   1.383       .  S
C1767      F1772   1.384       .  S
C1767      F1773   1.378       .  S
C1770      F1774   1.378   1_554  S
C1770      F1776   1.381       .  S
C1770      F3871   1.379   1_554  S
F1775      C3866   1.379       .  S
C1777      C1778   1.392       .  A
C1777      C1782   1.394       .  A
C1777      H1784   1.085       .  S
C1778      C1779   1.402       .  A
C1779      C1780   1.384       .  A
C1779      C1786   1.511       .  S
C1780      C1781   1.404       .  A
C1780      H3881   1.085       .  S
C1781      C1782   1.425       .  A
C1782      C1783   1.518       .  S
C1783      F1787   1.383       .  S
C1783      F1788   1.370       .  S
C1783      F1789   1.381       .  S
H1785      C3876   1.085       .  S
C1786      F1790   1.380       .  S
C1786      F1791   1.383       .  S
C1786      F3888   1.384       .  S
F1792      C3882   1.384       .  S
C1793      C1794   1.403   1_545  A
C1793      C1798   1.424       .  A
C1793      H1800   1.083   1_455  S
C1794      C1795   1.423       .  A
C1795      C1796   1.433       .  A
C1795      C1802   1.508       .  S
C1796      C1797   1.412   1_565  A
C1796      H1801   1.083       .  S
C1797      C1798   1.430       .  A
C1798      C1799   1.512       .  S
C1799      F1803   1.385   1_455  S
C1799      F1804   1.383       .  S
C1799      F1805   1.373       .  S
C1802      F1806   1.383       .  S
C1802      F1807   1.375       .  S
C1802      F1808   1.384       .  S
C1809      C1810   1.382       .  A
C1809      C1814   1.401       .  A
C1809      H1816   1.086       .  S
C1810      C1811   1.412       .  A
C1811      C1812   1.409       .  A
C1811      C1818   1.505       .  S
C1812      C1813   1.413       .  A
C1812      H1817   1.084       .  S
C1813      C1814   1.444       .  A
C1814      C1815   1.522       .  S
C1815      F1819   1.381       .  S
C1815      F1820   1.369   1_565  S
C1815      F1821   1.371   1_565  S
C1818      F1822   1.385       .  S
C1818      F1823   1.384       .  S
C1818      F1824   1.382       .  S
C1825      C1826   1.408       .  A
C1825      C1830   1.424   1_565  A
C1825      H1832   1.083   1_565  S
C1826      C1827   1.425       .  A
C1827      C1828   1.421       .  A
C1827      C1834   1.513       .  S
C1828      C1829   1.404   1_565  A
C1828      H1833   1.083       .  S
C1829      C1830   1.423       .  A
C1830      C1831   1.514       .  S
C1831      F1835   1.384       .  S
C1831      F1836   1.383       .  S
C1831      F1837   1.380       .  S
C1834      F1838   1.384       .  S
C1834      F1839   1.379       .  S
C1834      F1840   1.385       .  S
C1841      C1842   1.421       .  A
C1841      C1846   1.415       .  A
C1841      H1848   1.082       .  S
C1842      C1843   1.401       .  A
C1843      C1844   1.402       .  A
C1843      C1850   1.508       .  S
C1844      C1845   1.407       .  A
C1844      H1849   1.078       .  S
C1845      C1846   1.399       .  A
C1846      C1847   1.511       .  S
C1847      F1851   1.364       .  S
C1847      F1852   1.382       .  S
C1847      F1853   1.376       .  S
C1850      F1854   1.382       .  S
C1850      F1855   1.384       .  S
C1850      F1856   1.383       .  S
C1857      C1858   1.401       .  A
C1857      C1862   1.394       .  A
C1857      H1864   1.083       .  S
C1858      C1859   1.404       .  A
C1859      C1860   1.383       .  A
C1859      C1866   1.513       .  S
C1860      C1861   1.395       .  A
C1860      H1865   1.084       .  S
C1861      C1862   1.406       .  A
C1862      C1863   1.516       .  S
C1863      F1867   1.385       .  S
C1863      F1868   1.380       .  S
C1863      F1869   1.383       .  S
C1866      F1870   1.383       .  S
C1866      F1871   1.383       .  S
C1866      F1872   1.383       .  S
C1873      C1874   1.417       .  A
C1873      C1878   1.430       .  A
C1873      H1880   1.083   1_455  S
C1874      C1875   1.427       .  A
C1875      C1876   1.432       .  A
C1875      C1882   1.516       .  S
C1876      C1877   1.415       .  A
C1876      H1881   1.082       .  S
C1877      C1878   1.423       .  A
C1878      C1879   1.516       .  S
C1879      F1883   1.384       .  S
C1879      F1884   1.383       .  S
C1879      F1885   1.383       .  S
C1882      F1886   1.382       .  S
C1882      F1887   1.384       .  S
C1882      F1888   1.384       .  S
C1889      C1890   1.405       .  A
C1889      C1894   1.399       .  A
C1889      H1896   1.085       .  S
C1890      C1891   1.417       .  A
C1891      C1892   1.394       .  A
C1891      C1898   1.519       .  S
C1892      C1893   1.401       .  A
C1892      H1897   1.083       .  S
C1893      C1894   1.407       .  A
C1894      C1895   1.509       .  S
C1895      F1899   1.369       .  S
C1895      F1900   1.383       .  S
C1895      F1901   1.379       .  S
C1898      F1902   1.375       .  S
C1898      F1903   1.382   1_455  S
C1898      F1904   1.383       .  S
C1905      C1906   1.408       .  A
C1905      C1910   1.398       .  A
C1905      H1912   1.086       .  S
C1906      C1907   1.419       .  A
C1907      C1908   1.396       .  A
C1907      C1914   1.518       .  S
C1908      C1909   1.401       .  A
C1908      H1913   1.086       .  S
C1909      C1910   1.408       .  A
C1910      C1911   1.515       .  S
C1911      F1915   1.383       .  S
C1911      F1916   1.383       .  S
C1911      F1917   1.383       .  S
C1914      F1918   1.378       .  S
C1914      F1919   1.376       .  S
C1914      F1920   1.379       .  S
C1921      C1922   1.409       .  A
C1921      C1926   1.433       .  A
C1921      H1928   1.083       .  S
C1922      C1923   1.422   1_545  A
C1923      C1924   1.434       .  A
C1923      C1930   1.514   1_455  S
C1924      C1925   1.414       .  A
C1924      H1929   1.083       .  S
C1925      C1926   1.437   1_565  A
C1926      C1927   1.512       .  S
C1927      F1931   1.381       .  S
C1927      F1932   1.382   1_545  S
C1927      F1933   1.383       .  S
C1930      F1934   1.380       .  S
C1930      F1935   1.382       .  S
C1930      F1936   1.384       .  S
C1937      C1938   1.404       .  A
C1937      C1942   1.405       .  A
C1937      H1944   1.060   1_545  S
C1938      C1939   1.406       .  A
C1939      C1940   1.410       .  A
C1939      C1946   1.515       .  S
C1940      C1941   1.407       .  A
C1940      H1945   1.077       .  S
C1941      C1942   1.395       .  A
C1942      C1943   1.527       .  S
C1943      F1947   1.360       .  S
C1943      F1948   1.379       .  S
C1943      F1949   1.382       .  S
C1946      F1950   1.383       .  S
C1946      F1951   1.383       .  S
C1946      F1952   1.385       .  S
C1953      C1954   1.390       .  A
C1953      C1958   1.390       .  A
C1953      H1960   1.086       .  S
C1954      C1955   1.420       .  A
C1955      C1956   1.408       .  A
C1955      C1962   1.521       .  S
C1956      C1957   1.401       .  A
C1956      H1961   1.083       .  S
C1957      C1958   1.422       .  A
C1958      C1959   1.527       .  S
C1959      F1963   1.381       .  S
C1959      F1964   1.383       .  S
C1959      F1965   1.371   1_455  S
C1962      F1966   1.382       .  S
C1962      F1967   1.383       .  S
C1962      F1968   1.384       .  S
C1969      C1970   1.405       .  A
C1969      C1974   1.391       .  A
C1969      H1976   1.084       .  S
C1970      C1971   1.419       .  A
C1971      C1972   1.390       .  A
C1971      C1978   1.516       .  S
C1972      C1973   1.386       .  A
C1972      H1977   1.084       .  S
C1973      C1974   1.397       .  A
C1974      C1975   1.504       .  S
C1975      F1979   1.384       .  S
C1975      F1980   1.381       .  S
C1975      F1981   1.384       .  S
C1978      F1982   1.384       .  S
C1978      F1983   1.377       .  S
C1978      F1984   1.374       .  S
C1985      C1986   1.412       .  A
C1985      C1990   1.403       .  A
C1985      H1992   1.081       .  S
C1986      C1987   1.428       .  A
C1987      C1988   1.399       .  A
C1987      C1994   1.523       .  S
C1988      C1989   1.393       .  A
C1988      H1993   1.083       .  S
C1989      C1990   1.405       .  A
C1990      C1991   1.517       .  S
C1991      F1995   1.384       .  S
C1991      F1996   1.381       .  S
C1991      F1997   1.383       .  S
C1994      F1998   1.376       .  S
C1994      F1999   1.384       .  S
C1994      F2000   1.377       .  S
C2001      C2002   1.412       .  A
C2001      C2006   1.415       .  A
C2001      H2008   1.082       .  S
C2002      C2003   1.397       .  A
C2003      C2004   1.387       .  A
C2003      C2010   1.518       .  S
C2004      C2005   1.402       .  A
C2004      H2009   1.066       .  S
C2005      C2006   1.406       .  A
C2006      C2007   1.516       .  S
C2007      F2011   1.365       .  S
C2007      F2012   1.383       .  S
C2007      F2013   1.383       .  S
C2010      F2014   1.384   1_545  S
C2010      F2015   1.384   1_545  S
C2010      F2016   1.380       .  S
C2017      C2018   1.408   1_565  A
C2017      C2022   1.429       .  A
C2017      H4120   1.082       .  S
C2018      C2019   1.418       .  A
C2019      C2020   1.427       .  A
C2019      C2026   1.516       .  S
C2020      C2021   1.409   1_545  A
C2020      H2025   1.082       .  S
C2021      C2022   1.423       .  A
C2022      C4119   1.516   1_554  S
C2023      C4118   1.516       .  S
C2023      F2027   1.384       .  S
C2023      F2028   1.382       .  S
C2023      F4125   1.383       .  S
H2024      C4113   1.082       .  S
C2026      F2030   1.383   1_554  S
C2026      F2031   1.384       .  S
C2026      F2032   1.384       .  S
F2029      C4119   1.383   1_554  S
C2033      C2034   1.414       .  A
C2033      C2038   1.427       .  A
C2033      H2040   1.081       .  S
C2034      C2035   1.423       .  A
C2035      C2036   1.433       .  A
C2035      C2042   1.514       .  S
C2036      C2037   1.413       .  A
C2036      H2041   1.080       .  S
C2037      C2038   1.419       .  A
C2038      C2039   1.515       .  S
C2039      F2043   1.383       .  S
C2039      F2044   1.383       .  S
C2039      F2045   1.381       .  S
C2042      F2046   1.383       .  S
C2042      F2047   1.383       .  S
C2042      F2048   1.384       .  S
C2049      C2054   1.394       .  A
C2049      C4146   1.407       .  A
C2049      H2056   1.078       .  S
C2050      C2051   1.419       .  A
C2050      C4145   1.407   1_554  A
C2051      C2052   1.404       .  A
C2051      C2058   1.532       .  S
C2052      C4149   1.403   1_554  A
C2052      H2057   1.081       .  S
C2053      C2054   1.403       .  A
C2053      C4148   1.403       .  A
C2054      C2055   1.518       .  S
C2055      F2059   1.385       .  S
C2055      F2060   1.381       .  S
C2055      F2061   1.383       .  S
C2058      F2062   1.382       .  S
C2058      F2063   1.378       .  S
C2058      F2064   1.383       .  S
C2065      C2066   1.406       .  A
C2065      C2070   1.389       .  A
C2065      H2072   1.050       .  S
C2066      C2067   1.410       .  A
C2067      C2068   1.422       .  A
C2067      C2074   1.515       .  S
C2068      C2069   1.418       .  A
C2068      H2073   1.081       .  S
C2069      C3440   1.454       .  S
C2069      C2070   1.385       .  A
C2070      C4167   1.523       .  S
C2071      C4166   1.523       .  S
C2071      F2075   1.379       .  S
C2071      F2076   1.383       .  S
C2071      F2077   1.384       .  S
C2074      F2078   1.383       .  S
C2074      F2079   1.382       .  S
C2074      F2080   1.384       .  S
C2081      C2082   1.410       .  A
C2081      C2086   1.397       .  A
C2081      H2088   1.083       .  S
C2082      C2083   1.423       .  A
C2083      C2084   1.396       .  A
C2083      C2090   1.517       .  S
C2084      C2085   1.391       .  A
C2084      H2089   1.084       .  S
C2085      C2086   1.402       .  A
C2086      C2087   1.504       .  S
C2087      F2091   1.383       .  S
C2087      F2092   1.382       .  S
C2087      F2093   1.385       .  S
C2090      F2094   1.386       .  S
C2090      F2095   1.373       .  S
C2090      F2096   1.358       .  S
Zr2097     O2098   2.464       .  S
Zr2097     O2099   2.484       .  S
Zr2097     O2100   2.419       .  S
Zr2097     O2103   2.401       .  S
Zr2097     O2105   2.385       .  S
Zr2097     O2106   2.415       .  S
Zr2097     O2107   2.402       .  S
Zr2097     O2108   2.426       .  S
O2098      H2154   0.991       .  S
O2099      C2119   1.281       .  A
O2100      C2121   1.269       .  A
O2101     Zr2111   2.490       .  S
O2101      C2120   1.280       .  A
O2102     Zr2110   2.386       .  S
O2102      C2121   1.261       .  A
O2103      C2120   1.263       .  A
O2104     Zr2112   2.510       .  S
O2104      C2119   1.295       .  A
O2105     Zr2110   2.385       .  S
O2105     Zr2112   2.362       .  S
O2106     Zr2111   2.459       .  S
O2106     Zr2112   2.350       .  S
O2106      H2141   0.966       .  S
O2107     Zr2110   2.394       .  S
O2107     Zr2127   2.400       .  S
O2107      H2144   0.958       .  S
O2108     Zr2111   2.430       .  S
O2108     Zr2127   2.389       .  S
Zr2109     O2134   2.429       .  S
Zr2109     O2128   2.588       .  S
Zr2109     O2136   2.331       .  S
Zr2109     O2124   2.383       .  S
Zr2109     O2115   2.436       .  S
Zr2109     O2116   2.412       .  S
Zr2109     O2117   2.344       .  S
Zr2109     O2118   2.386       .  S
Zr2110     O2129   2.447       .  S
Zr2110     O2122   2.439       .  S
Zr2110     O2123   2.362       .  S
Zr2110     O2116   2.395       .  S
Zr2110     O2117   2.391       .  S
Zr2111     O2113   2.434       .  S
Zr2111     O2135   2.434       .  S
Zr2111     O2137   2.538       .  S
Zr2111     O2115   2.389       .  S
Zr2111     O2118   2.426       .  S
Zr2112     O2138   2.436       .  S
Zr2112     O2139   2.435       .  S
Zr2112     O2114   2.436       .  S
Zr2112     O2115   2.420       .  S
Zr2112     O2116   2.422       .  S
O2113      H2150   0.990       .  S
O2114      H2145   0.990       .  S
O2114      H2159   0.990       .  S
O2116      H2142   0.966       .  S
O2117     Zr2127   2.386       .  S
O2118     Zr2127   2.379       .  S
O2118      H2143   0.966       .  S
C2119      C4130   1.533       .  S
C2120      C4162   1.495       .  S
C2121      C4146   1.462       .  S
O2122      H2158   0.990       .  S
O2123      C2125   1.258       .  A
O2124      C2125   1.267       .  A
C2125      C4178   1.452       .  S
O2126      H2155   0.990       .  S
Zr2127     O2131   2.437       .  S
Zr2127     O2132   2.435       .  S
O2128      C2133   1.319       .  A
O2129      H2146   0.988       .  S
O2129      H2161   0.988       .  S
O2130      H2147   0.990       .  S
O2131      H2160   0.990       .  S
O2132      C2133   1.281       .  A
O2134      H2153   0.989       .  S
O2134      H2157   0.990       .  S
O2135      H2149   0.990       .  S
O2135      H2156   0.990       .  S
O2136      C2140   1.246       .  A
O2137      C2140   1.291       .  A
O2138      H2148   0.990       .  S
O2139      H2152   0.990       .  S
C2140      C2451   1.487       .  S
Zr2163     O2164   2.430       .  S
Zr2163     O2165   2.465       .  S
Zr2163     O2166   2.452       .  S
Zr2163     O2169   2.391       .  S
Zr2163     O2171   2.384       .  S
Zr2163     O2172   2.404       .  S
Zr2163     O2173   2.429       .  S
Zr2163     O2174   2.432       .  S
O2164      H2220   0.989       .  S
O2164      H2228   0.990       .  S
O2165      C2185   1.290       .  A
O2166      C2187   1.274       .  A
O2167     Zr2177   2.419       .  S
O2167      C2186   1.273       .  A
O2168     Zr2176   2.366       .  S
O2168      C2187   1.258       .  A
O2169      C2186   1.272       .  A
O2170     Zr2178   2.498       .  S
O2170      C2185   1.295       .  A
O2171     Zr2176   2.406       .  S
O2171     Zr2178   2.362       .  S
O2172     Zr2177   2.451       .  S
O2172     Zr2178   2.339       .  S
O2172      H2207   0.966       .  S
O2173     Zr2176   2.405       .  S
O2173     Zr2193   2.392       .  S
O2173      H2210   0.961       .  S
O2174     Zr2177   2.427       .  S
O2174     Zr2193   2.395       .  S
Zr2175     O2194   2.586       .  S
Zr2175     O2202   2.351       .  S
Zr2175     O2190   2.415       .  S
Zr2175     O2181   2.433       .  S
Zr2175     O2182   2.402       .  S
Zr2175     O2183   2.347       .  S
Zr2175     O2184   2.376       .  S
Zr2176     O2195   2.442       .  S
Zr2176     O2188   2.421       .  S
Zr2176     O2189   2.388       .  S
Zr2176     O2182   2.370       .  S
Zr2176     O2183   2.386       .  S
Zr2177     O2179   2.434       .  S
Zr2177     O2203   2.494       .  S
Zr2177     O2181   2.375       .  S
Zr2177     O2184   2.407       .  S
Zr2178     O2181   2.427       .  S
Zr2178     O2182   2.399       .  S
O2179      H2216   0.990       .  S
O2180      H2211   0.990       .  S
O2182      H2208   0.963       .  S
O2183     Zr2193   2.398       .  S
O2184     Zr2193   2.372       .  S
O2184      H2209   0.965       .  S
C2185      C4117   1.527       .  S
C2186      C4098   1.449   1_565  S
C2187      C4082   1.479       .  S
O2188      H2224   0.991       .  S
O2189      C2191   1.270       .  A
O2190      C2191   1.289       .  A
C2191      C4181   1.470       .  S
O2192     Zr2193   2.440       .  S
O2192      H2221   0.990       .  S
Zr2193     O2196   2.438       .  S
Zr2193     O2197   2.438       .  S
Zr2193     O2198   2.432       .  S
O2194      C2199   1.319       .  A
O2195      H2212   0.988       .  S
O2195      H2227   0.988       .  S
O2196      H2213   0.990       .  S
O2197      H2217   0.990       .  S
O2197      H2226   0.990       .  S
O2198      C2199   1.281       .  A
C2199      C2450   1.540       .  S
O2200      H2219   0.981       .  S
O2200      H2223   0.991   1_554  S
O2201      H2222   0.990       .  S
O2202      C2206   1.253       .  A
O2203      C2206   1.285       .  A
O2204      H2214   0.990       .  S
O2205      H2218   0.990       .  S
Zr2229     O2230   2.429       .  S
Zr2229     O2231   2.514       .  S
Zr2229     O2232   2.514       .  S
Zr2229     O2235   2.418       .  S
Zr2229     O2237   2.353       .  S
Zr2229     O2238   2.412       .  S
Zr2229     O2239   2.376       .  S
Zr2229     O2240   2.451       .  S
O2230      H2286   0.989       .  S
O2230      H2294   0.986       .  S
O2231      C2251   1.297       .  A
O2232      C2253   1.297       .  A
O2233     Zr2243   2.480       .  S
O2233      C2252   1.286       .  A
O2234     Zr2242   2.320       .  S
O2234      C2253   1.251       .  A
O2235      C2252   1.273       .  A
O2236     Zr2244   2.494       .  S
O2236      C2251   1.291       .  A
O2237     Zr2242   2.415       .  S
O2237     Zr2244   2.397       .  S
O2238     Zr2243   2.462       .  S
O2238     Zr2244   2.319       .  S
O2238      H2273   0.966       .  S
O2239     Zr2242   2.422       .  S
O2239     Zr2259   2.375       .  S
O2239      H2276   0.967       .  S
O2240     Zr2243   2.419       .  S
O2240     Zr2259   2.393       .  S
Zr2241     O2266   2.427       .  S
Zr2241     O2260   2.534       .  S
Zr2241     O2268   2.344       .  S
Zr2241     O2256   2.440       .  S
Zr2241     O2247   2.459       .  S
Zr2241     O2248   2.388       .  S
Zr2241     O2249   2.325       .  S
Zr2241     O2250   2.389       .  S
Zr2242     O2261   2.434       .  S
Zr2242     O2254   2.404       .  S
Zr2242     O2255   2.386       .  S
Zr2242     O2248   2.355       .  S
Zr2242     O2249   2.355       .  S
Zr2243     O2245   2.434       .  S
Zr2243     O2267   2.435       .  S
Zr2243     O2269   2.541       .  S
Zr2243     O2247   2.386       .  S
Zr2243     O2250   2.415       .  S
Zr2244     O2270   2.437       .  S
Zr2244     O2271   2.437       .  S
Zr2244     O2246   2.437       .  S
Zr2244     O2247   2.437       .  S
Zr2244     O2248   2.374       .  S
O2245      H2282   0.990       .  S
O2246      H2277   0.990       .  S
O2246      H2291   0.990       .  S
O2248      H2274   0.958       .  S
O2249     Zr2259   2.399       .  S
O2250     Zr2259   2.372       .  S
O2250      H2275   0.966       .  S
C2251      C4021   1.551       .  S
C2252      C4034   1.479   1_565  S
C2253      C4050   1.445       .  S
O2254      H2290   0.990       .  S
O2255      C2257   1.271       .  A
O2256      C2257   1.291       .  A
C2257      C4069   1.467       .  S
O2258     Zr2259   2.439       .  S
O2258      H2287   0.990       .  S
Zr2259     O2262   2.439       .  S
Zr2259     O2263   2.439       .  S
Zr2259     O2264   2.418       .  S
O2260      C2265   1.304       .  A
O2261      H2278   0.990       .  S
O2261      H2293   0.990       .  S
O2262      H2279   0.990       .  S
O2263      H2283   0.990       .  S
O2263      H2292   0.989       .  S
O2264      C2265   1.277       .  A
C2265      C2470   1.514       .  S
O2266      H2285   0.989       .  S
O2266      H2289   0.985       .  S
O2267      H2281   0.990       .  S
O2267      H2288   0.990       .  S
O2268      C2272   1.257       .  A
O2269      C2272   1.300       .  A
O2270      H2280   0.990       .  S
O2271      H2284   0.990       .  S
C2272      C2385   1.485       .  S
Zr2295     O2296   2.431       .  S
Zr2295     O2297   2.416       .  S
Zr2295     O2298   2.490       .  S
Zr2295     O2301   2.359       .  S
Zr2295     O2303   2.342       .  S
Zr2295     O2304   2.430       .  S
Zr2295     O2305   2.387       .  S
Zr2295     O2306   2.445       .  S
O2296      H2352   0.989       .  S
O2296      H2360   0.988       .  S
O2297      C2317   1.274       .  A
O2298      C2319   1.288       .  A
O2299     Zr2309   2.474       .  S
O2299      C2318   1.256       .  A
O2300     Zr2308   2.281       .  S
O2300      C2319   1.254       .  A
O2301      C2318   1.253       .  A
O2302     Zr2310   2.553       .  S
O2302      C2317   1.304       .  A
O2303     Zr2308   2.379       .  S
O2303     Zr2310   2.356       .  S
O2304     Zr2309   2.502       .  S
O2304     Zr2310   2.346       .  S
O2304      H2339   0.972       .  S
O2305     Zr2308   2.416       .  S
O2305     Zr2325   2.399       .  S
O2305      H2342   0.965       .  S
O2306     Zr2309   2.474       .  S
O2306     Zr2325   2.373       .  S
Zr2307     O2332   2.426       .  S
Zr2307     O2326   2.547       .  S
Zr2307     O2334   2.339       .  S
Zr2307     O2322   2.410       .  S
Zr2307     O2313   2.445       .  S
Zr2307     O2314   2.413       .  S
Zr2307     O2315   2.328       .  S
Zr2307     O2316   2.378       .  S
Zr2308     O2327   2.439       .  S
Zr2308     O2320   2.439       .  S
Zr2308     O2321   2.330       .  S
Zr2308     O2314   2.367       .  S
Zr2308     O2315   2.374       .  S
Zr2309     O2311   2.436       .  S
Zr2309     O2333   2.434       .  S
Zr2309     O2335   2.498       .  S
Zr2309     O2313   2.389       .  S
Zr2309     O2316   2.418       .  S
Zr2310     O2336   2.439       .  S
Zr2310     O2337   2.435       .  S
Zr2310     O2312   2.435       .  S
Zr2310     O2313   2.455       .  S
Zr2310     O2314   2.432       .  S
O2311      H2348   0.990       .  S
O2312      H2343   0.990       .  S
O2312      H2357   0.989       .  S
O2314      H2340   0.965       .  S
O2315     Zr2325   2.377       .  S
O2316     Zr2325   2.381       .  S
O2316      H2341   0.966       .  S
C2317      C3973   1.533       .  S
C2318      C4005   1.446       .  S
C2319      C3989   1.430       .  S
O2320      H2356   0.989       .  S
O2321      C2323   1.260       .  A
O2322      C2323   1.276       .  A
C2323      C4066   1.419       .  S
O2324     Zr2325   2.434       .  S
O2324      H2353   0.990       .  S
Zr2325     O2328   2.438       .  S
Zr2325     O2329   2.438       .  S
Zr2325     O2330   2.431       .  S
O2326      C2331   1.307       .  A
O2327      H2344   0.990       .  S
O2327      H2359   0.990       .  S
O2328      H2345   0.990       .  S
O2329      H2349   0.990       .  S
O2329      H2358   0.990       .  S
O2330      C2331   1.279       .  A
C2331      C2384   1.526       .  S
O2332      H2351   0.990       .  S
O2332      H2355   0.990       .  S
O2333      H2347   0.990       .  S
O2333      H2354   0.990       .  S
O2334      C2338   1.257       .  A
O2335      C2338   1.290       .  A
O2336      H2346   0.990       .  S
O2337      H2350   0.990       .  S
C2338      C2455   1.463       .  S
Zr2361     O2362   2.419       .  S
Zr2361     O2363   2.419       .  S
Zr2361     O2364   2.497       .  S
Zr2361     O2367   2.442       .  S
Zr2361     O2369   2.368       .  S
Zr2361     O2370   2.390       .  S
Zr2361     O2371   2.381       .  S
Zr2361     O2372   2.400       .  S
O2362      H2418   0.987       .  S
O2362      H2426   0.983       .  S
O2363      C2383   1.287       .  A
O2364      C2385   1.304       .  A
O2365     Zr2375   2.567       .  S
O2365      C2384   1.316       .  A
O2366     Zr2374   2.412       .  S
O2366      C2385   1.276       .  A
O2367      C2384   1.289       .  A
O2368     Zr2376   2.423       .  S
O2368      C2383   1.283       .  A
O2369     Zr2374   2.391       .  S
O2369     Zr2376   2.377       .  S
O2370     Zr2375   2.381       .  S
O2370     Zr2376   2.366       .  S
O2370      H2405   0.965       .  S
O2371     Zr2374   2.380       .  S
O2371     Zr2391   2.389       .  S
O2371      H2408   0.966       .  S
O2372     Zr2375   2.396       .  S
O2372     Zr2391   2.394       .  S
Zr2373     O2398   2.428       .  S
Zr2373     O2379   2.397       .  S
Zr2373     O2380   2.391       .  S
Zr2373     O2381   2.372       .  S
Zr2373     O2382   2.388       .  S
Zr2374     O2393   2.440       .  S
Zr2374     O2386   2.435       .  S
Zr2374     O2387   2.391       .  S
Zr2374     O2380   2.396       .  S
Zr2374     O2381   2.388       .  S
Zr2375     O2377   2.435       .  S
Zr2375     O2399   2.435       .  S
Zr2375     O2401   2.590       .  S
Zr2375     O2379   2.396       .  S
Zr2375     O2382   2.362       .  S
Zr2376     O2402   2.435       .  S
Zr2376     O2403   2.438       .  S
Zr2376     O2378   2.439       .  S
Zr2376     O2379   2.401       .  S
Zr2376     O2380   2.401       .  S
O2377      H2414   0.990       .  S
O2378      H2409   0.990       .  S
O2378      H2423   0.990       .  S
O2380      H2406   0.966       .  S
O2381     Zr2391   2.373       .  S
O2382     Zr2391   2.368       .  S
C2383      C2463   1.459       .  S
O2386      H2422   0.990       .  S
O2387      C2389   1.272   1_556  A
O2390     Zr2391   2.440       .  S
O2392      C2397   1.278       .  A
O2393      H2410   0.990       .  S
O2393      H2425   0.990       .  S
O2394      H2411   0.990       .  S
O2395      H2415   0.990       .  S
O2395      H2424   0.990       .  S
O2396      C2397   1.281       .  A
C2397      C2449   1.433       .  S
O2398      H2417   0.990       .  S
O2398      H2421   0.987       .  S
O2399      H2413   0.990       .  S
O2399      H2420   0.990       .  S
O2401      C2404   1.320   1_556  A
O2402      H2412   0.990       .  S
O2403      H2416   0.990       .  S
Zr2427     O2428   2.439       .  S
Zr2427     O2429   2.394       .  S
Zr2427     O2430   2.522       .  S
Zr2427     O2433   2.453       .  S
Zr2427     O2435   2.373       .  S
Zr2427     O2436   2.393       .  S
Zr2427     O2437   2.392       .  S
Zr2427     O2438   2.408       .  S
O2428      H2484   0.989       .  S
O2428      H2492   0.990       .  S
O2429      C2449   1.281       .  A
O2430      C2451   1.307       .  A
O2431     Zr2441   2.583       .  S
O2431      C2450   1.319       .  A
O2432     Zr2440   2.397       .  S
O2432      C2451   1.271       .  A
O2433      C2450   1.288       .  A
O2434     Zr2442   2.390       .  S
O2434      C2449   1.278       .  A
O2435     Zr2440   2.388       .  S
O2435     Zr2442   2.381       .  S
O2436     Zr2441   2.362       .  S
O2436     Zr2442   2.373       .  S
O2436      H2471   0.965       .  S
O2437     Zr2440   2.393       .  S
O2437     Zr2457   2.407       .  S
O2437      H2474   0.966       .  S
O2438     Zr2441   2.392       .  S
O2438     Zr2457   2.402       .  S
Zr2439     O2464   2.434       .  S
Zr2439     O2458   2.401       .  S
Zr2439     O2466   2.426       .  S
Zr2439     O2454   2.480       .  S
Zr2439     O2445   2.403       .  S
Zr2439     O2446   2.384       .  S
Zr2439     O2447   2.373       .  S
Zr2439     O2448   2.394       .  S
Zr2440     O2459   2.441       .  S
Zr2440     O2452   2.435       .  S
Zr2440     O2453   2.380       .  S
Zr2440     O2446   2.394       .  S
Zr2440     O2447   2.397       .  S
Zr2441     O2443   2.434       .  S
Zr2441     O2465   2.435       .  S
Zr2441     O2467   2.547       .  S
Zr2441     O2445   2.409       .  S
Zr2441     O2448   2.385       .  S
Zr2442     O2468   2.434       .  S
Zr2442     O2469   2.438       .  S
Zr2442     O2444   2.437       .  S
Zr2442     O2445   2.385       .  S
Zr2442     O2446   2.380       .  S
O2443      H2480   0.990       .  S
O2444      H2475   0.990       .  S
O2444      H2489   0.990       .  S
O2446      H2472   0.966       .  S
O2447     Zr2457   2.374       .  S
O2448     Zr2457   2.365       .  S
O2448      H2473   0.965       .  S
O2452      H2488   0.990       .  S
O2453      C2455   1.270       .  A
O2454      C2455   1.298       .  A
O2456     Zr2457   2.439       .  S
O2456      H2485   0.990       .  S
Zr2457     O2460   2.435       .  S
Zr2457     O2461   2.438       .  S
Zr2457     O2462   2.437       .  S
O2458      C2463   1.280       .  A
O2459      H2476   0.990       .  S
O2459      H2491   0.990       .  S
O2460      H2477   0.990       .  S
O2461      H2481   0.990       .  S
O2461      H2490   0.990       .  S
O2462      C2463   1.286       .  A
O2464      H2483   0.990       .  S
O2464      H2487   0.990       .  S
O2465      H2479   0.990       .  S
O2465      H2486   0.990       .  S
O2466      C2470   1.284       .  A
O2467      C2470   1.311       .  A
O2468      H2478   0.990       .  S
O2469      H2482   0.990       .  S
Zr2493     O2494   2.426       .  S
Zr2493     O2495   2.439       .  S
Zr2493     O2496   2.441       .  S
Zr2493     O2499   2.492       .  S
Zr2493     O2501   2.391       .  S
Zr2493     O2502   2.384       .  S
Zr2493     O2503   2.439       .  S
Zr2493     O2504   2.337       .  S
O2494      H2550   0.985       .  S
O2494      H2558   0.986       .  S
O2495      C2515   1.284       .  A
O2496      C2517   1.272       .  A
O2497     Zr2507   2.404       .  S
O2497      C2516   1.272       .  A
O2498     Zr2506   2.434       .  S
O2498      C2517   1.276       .  A
O2499      C2516   1.293       .  A
O2500     Zr2508   2.517       .  S
O2500      C2515   1.298       .  A
O2501     Zr2506   2.429       .  S
O2501     Zr2508   2.362       .  S
O2502     Zr2507   2.383       .  S
O2502     Zr2508   2.371       .  S
O2502      H2537   0.964       .  S
O2503     Zr2506   2.451       .  S
O2503     Zr2523   2.411       .  S
O2503      H2540   0.956       .  S
O2504     Zr2507   2.336       .  S
O2504     Zr2523   2.347       .  S
Zr2505     O2530   2.438       .  S
Zr2505     O2524   2.547       .  S
Zr2505     O2532   2.416       .  S
Zr2505     O2520   2.357       .  S
Zr2505     O2511   2.424       .  S
Zr2505     O2512   2.436       .  S
Zr2505     O2513   2.353       .  S
Zr2505     O2514   2.359       .  S
Zr2506     O2525   2.435       .  S
Zr2506     O2518   2.435       .  S
Zr2506     O2519   2.508       .  S
Zr2506     O2512   2.391       .  S
Zr2506     O2513   2.389       .  S
Zr2507     O2509   2.432       .  S
Zr2507     O2531   2.442       .  S
Zr2507     O2533   2.370       .  S
Zr2507     O2511   2.363       .  S
Zr2507     O2514   2.425       .  S
Zr2508     O2534   2.435       .  S
Zr2508     O2535   2.436       .  S
Zr2508     O2510   2.438       .  S
Zr2508     O2511   2.414       .  S
Zr2508     O2512   2.448       .  S
O2509      H2546   0.990       .  S
O2510      H2541   0.990       .  S
O2510      H2555   0.990       .  S
O2512      H2538   0.966       .  S
O2513     Zr2523   2.363       .  S
O2514     Zr2523   2.409       .  S
O2514      H2539   0.965       .  S
C2515      C3922   1.517       .  S
C2516      C3941   1.471       .  S
C2517      C4085   1.465       .  S
O2518      H2554   0.990       .  S
O2519      C2521   1.297       .  A
O2520      C2521   1.269       .  A
C2521      C2800   1.478       .  S
O2522     Zr2523   2.439       .  S
O2522      H2551   0.990       .  S
Zr2523     O2526   2.439       .  S
Zr2523     O2527   2.446       .  S
Zr2523     O2528   2.414       .  S
O2524      C2529   1.310       .  A
O2525      H2542   0.990       .  S
O2525      H2557   0.990       .  S
O2526      H2543   0.990       .  S
O2527      H2547   0.990       .  S
O2527      H2556   0.989       .  S
O2528      C2529   1.275       .  A
C2529      C2847   1.516       .  S
O2530      H2549   0.989       .  S
O2530      H2553   0.990       .  S
O2531      H2545   0.990       .  S
O2531      H2552   0.990       .  S
O2532      C2536   1.284       .  A
O2533      C2536   1.267       .  A
O2534      H2544   0.990       .  S
O2535      H2548   0.990       .  S
C2536      C3954   1.433       .  S
Zr2559     O2560   2.447   1_655  S
Zr2559     O2561   2.492       .  S
Zr2559     O2562   2.374       .  S
Zr2559     O2565   2.496       .  S
Zr2559     O2567   2.423       .  S
Zr2559     O2568   2.341       .  S
Zr2559     O2569   2.371       .  S
Zr2559     O2570   2.344       .  S
O2560      H2616   0.987       .  S
O2560      H2624   0.987       .  S
O2561      C2581   1.290       .  A
O2562      C2583   1.245   1_655  A
O2563     Zr2573   2.399       .  S
O2563      C2582   1.283       .  A
O2564     Zr2572   2.451       .  S
O2564      C2583   1.266   1_655  A
O2565      C2582   1.294       .  A
O2566     Zr2574   2.478       .  S
O2566      C2581   1.288       .  A
O2567     Zr2572   2.479       .  S
O2567     Zr2574   2.395       .  S
O2568     Zr2573   2.395       .  S
O2568     Zr2574   2.404       .  S
O2568      H2603   0.966       .  S
O2569     Zr2572   2.382       .  S
O2569     Zr2589   2.367       .  S
O2569      H2606   0.961       .  S
O2570     Zr2573   2.359       .  S
O2570     Zr2589   2.368       .  S
Zr2571     O2596   2.440       .  S
Zr2571     O2590   2.557       .  S
Zr2571     O2598   2.417       .  S
Zr2571     O2586   2.341       .  S
Zr2571     O2577   2.414       .  S
Zr2571     O2578   2.471       .  S
Zr2571     O2579   2.404       .  S
Zr2571     O2580   2.359       .  S
Zr2572     O2591   2.447       .  S
Zr2572     O2584   2.434       .  S
Zr2572     O2585   2.487       .  S
Zr2572     O2578   2.388       .  S
Zr2572     O2579   2.425       .  S
Zr2573     O2575   2.436       .  S
Zr2573     O2597   2.433       .  S
Zr2573     O2599   2.366       .  S
Zr2573     O2577   2.378       .  S
Zr2573     O2580   2.405       .  S
Zr2574     O2600   2.436       .  S
Zr2574     O2601   2.437       .  S
Zr2574     O2576   2.440       .  S
Zr2574     O2577   2.427       .  S
Zr2574     O2578   2.435       .  S
O2575      H2612   0.990       .  S
O2576      H2607   0.990       .  S
O2576      H2621   0.990       .  S
O2578      H2604   0.966       .  S
O2579     Zr2589   2.387       .  S
O2580     Zr2589   2.391       .  S
O2580      H2605   0.965       .  S
C2581      C3890   1.528   1_655  S
C2582      C3906   1.465       .  S
C2583      C4053   1.465       .  S
O2584      H2620   0.990       .  S
O2585      C2587   1.291       .  A
O2586      C2587   1.257       .  A
C2587      C2846   1.456       .  S
O2588     Zr2589   2.438       .  S
O2588      H2617   0.990       .  S
Zr2589     O2592   2.431       .  S
Zr2589     O2593   2.450       .  S
Zr2589     O2594   2.380       .  S
O2590      C2595   1.311       .  A
O2591      H2608   0.990       .  S
O2591      H2623   0.988       .  S
O2592      H2609   0.990       .  S
O2593      H2613   0.990       .  S
O2593      H2622   0.989       .  S
O2594      C2595   1.270       .  A
C2595      C2785   1.508       .  S
O2596      H2615   0.990       .  S
O2596      H2619   0.983       .  S
O2597      H2611   0.990       .  S
O2597      H2618   0.989       .  S
O2598      C2602   1.280       .  A
O2599      C2602   1.265       .  A
O2600      H2610   0.990       .  S
O2601      H2614   0.990       .  S
C2602      C3957   1.428       .  S
Zr2625     O2627   2.427       .  S
Zr2625     O2628   2.440       .  S
Zr2625     O2633   2.395       .  S
Zr2625     O2634   2.374       .  S
Zr2625     O2635   2.438       .  S
Zr2625     O2636   2.388       .  S
O2626      H2682   0.982       .  S
O2626      H2690   0.984       .  S
O2627      C2647   1.280       .  A
O2628      C2649   1.273       .  A
O2629     Zr2639   2.388       .  S
O2630     Zr2638   2.425       .  S
O2630      C2649   1.272       .  A
O2631      C2648   1.284       .  A
O2632     Zr2640   2.546       .  S
O2632      C2647   1.304       .  A
O2633     Zr2638   2.433       .  S
O2633     Zr2640   2.358       .  S
O2634     Zr2639   2.381       .  S
O2634     Zr2640   2.345       .  S
O2634      H2669   0.965       .  S
O2635     Zr2638   2.454       .  S
O2635      H2672   0.957       .  S
O2636     Zr2639   2.382       .  S
Zr2637     O2662   2.438       .  S
Zr2637     O2656   2.570       .  S
Zr2637     O2664   2.422       .  S
Zr2637     O2652   2.323       .  S
Zr2637     O2643   2.409       .  S
Zr2637     O2644   2.443       .  S
Zr2637     O2645   2.354       .  S
Zr2637     O2646   2.330       .  S
Zr2638     O2657   2.438       .  S
Zr2638     O2650   2.435       .  S
Zr2638     O2651   2.500       .  S
Zr2638     O2644   2.391       .  S
Zr2638     O2645   2.396       .  S
Zr2639     O2663   2.449       .  S
Zr2639     O2665   2.367       .  S
Zr2639     O2643   2.356       .  S
Zr2639     O2646   2.412       .  S
Zr2640     O2666   2.435       .  S
Zr2640     O2667   2.436       .  S
Zr2640     O2642   2.437       .  S
Zr2640     O2643   2.425       .  S
Zr2640     O2644   2.450       .  S
O2641      H2678   0.988       .  S
O2642      H2673   0.990       .  S
O2642      H2687   0.990       .  S
O2644      H2670   0.965       .  S
O2646      H2671   0.965       .  S
C2647      C3845   1.526       .  S
C2648      C3858   1.478       .  S
C2649      C4149   1.459       .  S
O2650      H2686   0.990       .  S
O2651      C2653   1.294       .  A
O2652      C2653   1.265       .  A
C2653      C2780   1.467       .  S
O2654     Zr2655   2.438       .  S
O2654      H2683   0.990       .  S
Zr2655     O2658   2.437       .  S
Zr2655     O2659   2.444       .  S
Zr2655     O2660   2.432       .  S
O2656      C2661   1.313   1_556  A
O2657      H2674   0.990       .  S
O2657      H2689   0.990       .  S
O2658      H2675   0.990       .  S
O2659      H2679   0.990       .  S
O2659      H2688   0.990       .  S
O2662      H2681   0.990       .  S
O2662      H2685   0.985       .  S
O2663      H2677   0.989       .  S
O2663      H2684   0.990       .  S
O2664      C2668   1.287       .  A
O2665      C2668   1.265       .  A
O2666      H2676   0.990       .  S
O2667      H2680   0.990       .  S
C2668      C3874   1.450       .  S
Zr2691     O2692   2.418   1_655  S
Zr2691     O2693   2.440       .  S
Zr2691     O2694   2.418       .  S
Zr2691     O2697   2.503       .  S
Zr2691     O2699   2.422       .  S
Zr2691     O2700   2.375       .  S
Zr2691     O2701   2.479       .  S
Zr2691     O2702   2.407       .  S
O2692      H2748   0.984       .  S
O2692      H2756   0.986       .  S
O2694      C2715   1.266   1_655  A
O2695     Zr2705   2.359       .  S
O2695      C2714   1.256       .  A
O2696     Zr2704   2.443       .  S
O2696      C2715   1.264   1_655  A
O2697      C2714   1.294       .  A
O2698     Zr2706   2.549       .  S
O2698      C2713   1.306   1_655  A
O2699     Zr2704   2.466       .  S
O2700     Zr2705   2.360       .  S
O2700      H2735   0.965       .  S
O2701     Zr2704   2.496       .  S
O2701     Zr2721   2.353       .  S
O2701      H2738   0.958       .  S
O2702     Zr2705   2.414       .  S
O2702     Zr2721   2.387       .  S
Zr2703     O2722   2.576       .  S
Zr2703     O2711   2.378       .  S
Zr2703     O2712   2.268       .  S
Zr2704     O2723   2.439       .  S
Zr2704     O2711   2.412       .  S
Zr2705     O2707   2.441       .  S
Zr2705     O2729   2.449       .  S
Zr2705     O2731   2.366       .  S
Zr2705     O2712   2.347       .  S
Zr2706     O2732   2.434       .  S
Zr2706     O2733   2.435       .  S
Zr2706     O2708   2.438       .  S
Zr2706     O2709   2.467       .  S
Zr2706     O2710   2.454       .  S
O2707      H2744   0.989       .  S
O2708      H2739   0.990       .  S
O2708      H2753   0.990       .  S
O2710      H2736   0.966       .  S
O2711     Zr2721   2.388       .  S
O2712     Zr2721   2.377       .  S
O2712      H2737   0.955       .  S
C2713      C3810   1.532       .  S
C2714      C3826   1.495       .  S
C2715      C3986   1.461       .  S
O2716      H2752   0.990       .  S
O2717      C2719   1.299       .  A
O2718      C2719   1.248       .  A
C2719      C2866   1.456       .  S
O2720     Zr2721   2.436       .  S
O2720      H2749   0.990       .  S
Zr2721     O2724   2.435       .  S
Zr2721     O2725   2.425       .  S
Zr2721     O2726   2.416       .  S
O2722      C2727   1.314       .  A
O2723      H2740   0.990       .  S
O2723      H2755   0.989       .  S
O2724      H2741   0.990       .  S
O2725      H2745   0.988       .  S
O2725      H2754   0.990       .  S
O2726      C2727   1.275       .  A
C2727      C2781   1.533       .  S
O2728      H2747   0.989       .  S
O2728      H2751   0.990       .  S
O2729      H2743   0.990       .  S
O2729      H2750   0.990       .  S
O2731      C2734   1.264       .  A
O2732      H2742   0.990       .  S
O2733      H2746   0.990       .  S
C2734      C3877   1.460       .  S
Zr2757     O2758   2.448       .  S
Zr2757     O2759   2.382       .  S
Zr2757     O2760   2.448       .  S
Zr2757     O2763   2.420       .  S
Zr2757     O2765   2.377       .  S
Zr2757     O2766   2.373       .  S
Zr2757     O2767   2.409       .  S
Zr2757     O2768   2.398       .  S
O2758      H2814   0.991       .  S
O2758      H2822   0.987       .  S
O2759      C2779   1.272       .  A
O2760      C2781   1.281       .  A
O2761     Zr2771   2.416       .  S
O2761      C2780   1.273       .  A
O2762     Zr2770   2.564       .  S
O2762      C2781   1.313       .  A
O2763      C2780   1.286       .  A
O2764     Zr2772   2.429       .  S
O2764      C2779   1.278       .  A
O2765     Zr2770   2.404       .  S
O2765     Zr2772   2.387       .  S
O2766     Zr2771   2.412       .  S
O2766     Zr2772   2.383       .  S
O2766      H2801   0.966       .  S
O2767     Zr2770   2.414       .  S
O2767     Zr2787   2.402       .  S
O2767      H2804   0.965       .  S
O2768     Zr2771   2.411       .  S
O2768     Zr2787   2.409       .  S
Zr2769     O2794   2.441       .  S
Zr2769     O2788   2.402       .  S
Zr2769     O2796   2.434       .  S
Zr2769     O2784   2.411       .  S
Zr2769     O2775   2.386       .  S
Zr2769     O2776   2.408       .  S
Zr2769     O2777   2.384       .  S
Zr2769     O2778   2.366       .  S
Zr2770     O2789   2.434       .  S
Zr2770     O2782   2.435       .  S
Zr2770     O2783   2.548       .  S
Zr2770     O2776   2.418       .  S
Zr2770     O2777   2.398       .  S
Zr2771     O2773   2.435       .  S
Zr2771     O2795   2.437       .  S
Zr2771     O2797   2.431       .  S
Zr2771     O2775   2.398       .  S
Zr2771     O2778   2.398       .  S
Zr2772     O2798   2.436       .  S
Zr2772     O2799   2.436       .  S
Zr2772     O2774   2.436       .  S
Zr2772     O2775   2.404       .  S
Zr2772     O2776   2.393       .  S
O2773      H2810   0.990       .  S
O2774      H2805   0.990       .  S
O2774      H2819   0.990       .  S
O2776      H2802   0.966       .  S
O2777     Zr2787   2.374       .  S
O2778     Zr2787   2.387       .  S
O2778      H2803   0.966       .  S
C2779      C2859   1.460       .  S
O2782      H2818   0.990       .  S
O2783      C2785   1.312       .  A
O2784      C2785   1.277       .  A
O2786     Zr2787   2.440       .  S
O2786      H2815   0.990       .  S
Zr2787     O2790   2.437       .  S
Zr2787     O2791   2.440       .  S
Zr2787     O2792   2.452       .  S
O2788      C2793   1.281       .  A
O2789      H2806   0.990       .  S
O2789      H2821   0.990       .  S
O2790      H2807   0.990       .  S
O2791      H2811   0.990       .  S
O2791      H2820   0.990       .  S
O2792      C2793   1.284       .  A
C2793      C2845   1.475       .  S
O2794      H2813   0.990       .  S
O2794      H2817   0.990       .  S
O2795      H2809   0.990       .  S
O2795      H2816   0.990       .  S
O2796      C2800   1.289       .  A
O2797      C2800   1.279       .  A
O2798      H2808   0.990       .  S
O2799      H2812   0.990       .  S
Zr2823     O2824   2.449       .  S
Zr2823     O2825   2.400       .  S
Zr2823     O2826   2.426       .  S
Zr2823     O2829   2.456       .  S
Zr2823     O2831   2.385       .  S
Zr2823     O2832   2.366       .  S
Zr2823     O2833   2.418       .  S
Zr2823     O2834   2.394       .  S
O2824      H2880   0.990       .  S
O2824      H2888   0.990       .  S
O2825      C2845   1.275       .  A
O2826      C2847   1.278       .  A
O2827     Zr2837   2.378       .  S
O2827      C2846   1.267       .  A
O2828     Zr2836   2.560       .  S
O2828      C2847   1.312       .  A
O2829      C2846   1.293       .  A
O2830     Zr2838   2.446       .  S
O2830      C2845   1.281       .  A
O2831     Zr2836   2.408       .  S
O2831     Zr2838   2.383       .  S
O2832     Zr2837   2.405       .  S
O2832     Zr2838   2.381       .  S
O2832      H2867   0.966       .  S
O2833     Zr2836   2.417       .  S
O2833     Zr2853   2.383       .  S
O2833      H2870   0.964       .  S
O2834     Zr2837   2.401       .  S
O2834     Zr2853   2.408       .  S
Zr2835     O2860   2.440       .  S
Zr2835     O2862   2.469       .  S
Zr2835     O2850   2.452       .  S
Zr2835     O2841   2.394       .  S
Zr2835     O2842   2.414       .  S
Zr2835     O2843   2.387       .  S
Zr2835     O2844   2.366       .  S
Zr2836     O2855   2.434       .  S
Zr2836     O2848   2.434       .  S
Zr2836     O2849   2.561       .  S
Zr2836     O2842   2.418       .  S
Zr2836     O2843   2.404       .  S
Zr2837     O2839   2.438       .  S
Zr2837     O2861   2.436       .  S
Zr2837     O2863   2.390       .  S
Zr2837     O2841   2.401       .  S
Zr2837     O2844   2.396       .  S
Zr2838     O2864   2.435       .  S
Zr2838     O2865   2.436       .  S
Zr2838     O2840   2.436       .  S
Zr2838     O2841   2.414       .  S
Zr2838     O2842   2.392       .  S
O2839      H2876   0.991       .  S
O2840      H2871   0.990       .  S
O2840      H2885   0.990       .  S
O2842      H2868   0.965       .  S
O2843     Zr2853   2.386       .  S
O2844     Zr2853   2.372       .  S
O2844      H2869   0.966       .  S
O2848      H2884   0.990       .  S
O2849      C2851   1.313       .  A
O2850      C2851   1.284       .  A
O2852     Zr2853   2.439       .  S
O2852      H2881   0.990       .  S
Zr2853     O2856   2.437       .  S
Zr2853     O2857   2.439       .  S
O2854      C2859   1.279       .  A
O2855      H2872   0.990       .  S
O2855      H2887   0.990       .  S
O2858      C2859   1.278       .  A
O2860      H2879   0.990       .  S
O2860      H2883   0.990       .  S
O2861      H2875   0.990       .  S
O2861      H2882   0.990       .  S
O2862      C2866   1.297       .  A
O2863      C2866   1.267       .  A
O2864      H2874   0.990       .  S
O2865      H2878   0.990       .  S
Zr2889     O2890   2.433       .  S
Zr2889     O2891   2.434       .  S
Zr2889     O2892   2.464       .  S
Zr2889     O2895   2.406       .  S
Zr2889     O2897   2.382       .  S
Zr2889     O2898   2.397       .  S
Zr2889     O2899   2.422       .  S
Zr2889     O2900   2.428       .  S
O2890      H2946   0.990       .  S
O2890      H2954   0.990       .  S
O2891      C2911   1.282       .  A
O2892      C2913   1.278       .  A
O2893     Zr2903   2.424       .  S
O2893      C2912   1.284       .  A
O2894     Zr2902   2.362       .  S
O2894      C2913   1.259       .  A
O2895      C2912   1.285       .  A
O2896     Zr2904   2.535       .  S
O2896      C2911   1.302       .  A
O2897     Zr2902   2.410       .  S
O2897     Zr2904   2.357       .  S
O2898     Zr2903   2.428       .  S
O2898     Zr2904   2.335       .  S
O2898      H2933   0.965       .  S
O2899     Zr2902   2.410       .  S
O2899     Zr2919   2.380       .  S
O2899      H2936   0.960       .  S
O2900     Zr2903   2.418       .  S
O2900     Zr2919   2.402       .  S
Zr2901     O2926   2.443       .  S
Zr2901     O2920   2.636       .  S
Zr2901     O2928   2.347       .  S
Zr2901     O2916   2.402       .  S
Zr2901     O2907   2.439       .  S
Zr2901     O2908   2.422       .  S
Zr2901     O2909   2.357       .  S
Zr2901     O2910   2.377       .  S
Zr2902     O2921   2.441       .  S
Zr2902     O2914   2.425       .  S
Zr2902     O2915   2.379       .  S
Zr2902     O2908   2.382       .  S
Zr2902     O2909   2.392       .  S
Zr2903     O2905   2.434       .  S
Zr2903     O2927   2.434       .  S
Zr2903     O2929   2.500       .  S
Zr2903     O2907   2.378       .  S
Zr2903     O2910   2.405       .  S
Zr2904     O2930   2.436       .  S
Zr2904     O2931   2.435       .  S
Zr2904     O2906   2.436       .  S
Zr2904     O2907   2.441       .  S
Zr2904     O2908   2.415       .  S
O2905      H2942   0.990       .  S
O2906      H2937   0.990       .  S
O2906      H2951   0.990       .  S
O2908      H2934   0.965       .  S
O2909     Zr2919   2.397       .  S
O2910     Zr2919   2.369       .  S
O2910      H2935   0.965       .  S
C2911      C4133   1.528       .  S
C2912      C3861   1.457       .  S
C2913      C3781   1.491       .  S
O2914      H2950   0.991       .  S
O2915      C2917   1.263       .  A
O2916      C2917   1.278       .  A
C2917      C3794   1.456       .  S
O2918      H2947   0.990       .  S
Zr2919     O2922   2.438       .  S
Zr2919     O2923   2.437       .  S
Zr2919     O2924   2.435       .  S
O2920      C2925   1.329       .  A
O2921      H2938   0.989       .  S
O2921      H2953   0.988       .  S
O2923      H2943   0.990       .  S
O2923      H2952   0.990       .  S
O2924      C2925   1.281       .  A
C2925      C3176   1.566       .  S
O2926      H2945   0.987       .  S
O2926      H2949   0.991       .  S
O2927      H2941   0.990       .  S
O2927      H2948   0.990       .  S
O2928      C2932   1.251       .  A
O2929      C2932   1.284       .  A
O2930      H2940   0.990       .  S
O2931      H2944   0.990       .  S
C2932      C3243   1.471       .  S
Zr2955     O2956   2.437       .  S
Zr2955     O2957   2.475       .  S
Zr2955     O2958   2.444       .  S
Zr2955     O2961   2.369       .  S
Zr2955     O2963   2.380       .  S
Zr2955     O2964   2.399       .  S
Zr2955     O2965   2.411       .  S
Zr2955     O2966   2.426       .  S
O2956      H3012   0.990       .  S
O2956      H3020   0.987       .  S
O2957      C2977   1.292       .  A
O2958      C2979   1.275       .  A
O2959     Zr2969   2.489       .  S
O2959      C2978   1.295       .  A
O2960     Zr2968   2.407       .  S
O2960      C2979   1.270       .  A
O2961      C2978   1.276       .  A
O2962     Zr2970   2.487       .  S
O2963     Zr2968   2.397       .  S
O2964     Zr2969   2.427       .  S
O2964      H2999   0.965       .  S
O2965     Zr2968   2.387       .  S
O2965     Zr2985   2.371       .  S
O2965      H3002   0.959       .  S
O2966     Zr2969   2.419       .  S
O2966     Zr2985   2.398       .  S
Zr2967     O2986   2.637       .  S
Zr2967     O2982   2.414       .  S
Zr2967     O2974   2.426       .  S
Zr2967     O2975   2.355       .  S
Zr2967     O2976   2.381       .  S
Zr2968     O2987   2.434       .  S
Zr2968     O2980   2.433       .  S
Zr2968     O2981   2.404       .  S
Zr2968     O2974   2.370       .  S
Zr2968     O2975   2.411       .  S
Zr2969     O2971   2.434       .  S
Zr2969     O2976   2.417       .  S
Zr2970     O2996   2.437   1_554  S
Zr2970     O2997   2.436   1_554  S
Zr2970     O2972   2.436   1_554  S
Zr2970     O2973   2.429       .  S
O2971      H3008   0.990       .  S
O2972      H3003   0.990       .  S
O2972      H3017   0.990   1_556  S
O2975     Zr2985   2.412       .  S
O2976     Zr2985   2.361       .  S
O2976      H3001   0.965       .  S
C2977      C4114   1.522       .  S
C2978      C3938   1.477   1_545  S
C2979      C3762   1.495       .  S
O2980      H3016   0.991       .  S
O2981      C2983   1.276       .  A
O2982      C2983   1.282       .  A
C2983      C3797   1.477       .  S
O2984     Zr2985   2.437       .  S
O2984      H3013   0.990       .  S
Zr2985     O2988   2.437       .  S
Zr2985     O2989   2.441       .  S
Zr2985     O2990   2.413       .  S
O2986      C2991   1.328       .  A
O2987      H3004   0.991       .  S
O2987      H3019   0.989       .  S
O2988      H3005   0.990       .  S
O2989      H3009   0.990       .  S
O2989      H3018   0.990       .  S
O2990      C2991   1.276       .  A
C2991      C3242   1.559       .  S
O2992      H3011   0.985   1_554  S
O2992      H3015   0.992   1_554  S
O2993      H3007   0.990       .  S
O2993      H3014   0.990       .  S
O2994      C2998   1.254       .  A
O2995      C2998   1.292       .  A
O2996      H3006   0.990       .  S
O2997      H3010   0.990       .  S
Zr3021     O3022   2.473       .  S
Zr3021     O3023   2.483       .  S
Zr3021     O3024   2.438   1_655  S
Zr3021     O3027   2.382       .  S
Zr3021     O3029   2.384       .  S
Zr3021     O3030   2.422       .  S
Zr3021     O3031   2.401       .  S
Zr3021     O3032   2.427       .  S
O3022      H3078   0.989       .  S
O3022      H3086   0.989       .  S
O3023      C3043   1.290       .  A
O3024      C3045   1.272       .  A
O3025     Zr3035   2.466       .  S
O3025      C3044   1.285       .  A
O3026     Zr3034   2.371   1_455  S
O3026      C3045   1.261       .  A
O3027      C3044   1.259       .  A
O3028     Zr3036   2.542       .  S
O3028      C3043   1.304       .  A
O3029     Zr3034   2.369       .  S
O3029     Zr3036   2.340       .  S
O3030     Zr3035   2.445       .  S
O3030     Zr3036   2.330       .  S
O3030      H3065   0.965       .  S
O3031     Zr3034   2.377       .  S
O3031     Zr3051   2.399       .  S
O3031      H3068   0.959       .  S
O3032     Zr3035   2.428       .  S
O3032     Zr3051   2.390       .  S
Zr3033     O3058   2.424       .  S
Zr3033     O3052   2.508       .  S
Zr3033     O3060   2.333       .  S
Zr3033     O3048   2.429       .  S
Zr3033     O3039   2.444       .  S
Zr3033     O3040   2.420       .  S
Zr3033     O3041   2.336       .  S
Zr3033     O3042   2.374       .  S
Zr3034     O3053   2.434       .  S
Zr3034     O3046   2.422   1_655  S
Zr3034     O3047   2.322       .  S
Zr3034     O3040   2.397       .  S
Zr3034     O3041   2.396       .  S
Zr3035     O3037   2.434       .  S
Zr3035     O3059   2.434       .  S
Zr3035     O3061   2.557       .  S
Zr3035     O3039   2.371       .  S
Zr3035     O3042   2.395       .  S
Zr3036     O3062   2.437       .  S
Zr3036     O3063   2.434       .  S
Zr3036     O3038   2.436       .  S
Zr3036     O3039   2.437       .  S
Zr3036     O3040   2.427       .  S
O3037      H3074   0.990       .  S
O3038      H3069   0.990   1_655  S
O3038      H3083   0.990   1_655  S
O3040      H3066   0.968       .  S
O3041     Zr3051   2.388       .  S
O3042     Zr3051   2.387       .  S
O3042      H3067   0.965       .  S
C3043      C4018   1.542   1_655  S
C3044      C3909   1.480   1_545  S
C3045      C3733   1.474       .  S
O3046      H3082   0.991       .  S
O3047      C3049   1.250       .  A
O3048      C3049   1.272       .  A
C3049      C3746   1.442       .  S
O3050     Zr3051   2.440       .  S
O3050      H3079   0.990       .  S
Zr3051     O3054   2.439       .  S
Zr3051     O3055   2.436       .  S
Zr3051     O3056   2.424       .  S
O3052      C3057   1.300       .  A
O3053      H3070   0.989       .  S
O3053      H3085   0.989       .  S
O3054      H3071   0.990       .  S
O3055      H3075   0.990       .  S
O3055      H3084   0.990       .  S
O3056      C3057   1.278       .  A
C3057      C3262   1.497       .  S
O3058      H3077   0.990       .  S
O3058      H3081   0.990       .  S
O3059      H3073   0.990       .  S
O3059      H3080   0.990       .  S
O3060      C3064   1.259       .  A
O3061      C3064   1.304       .  A
O3062      H3072   0.990       .  S
O3063      H3076   0.990       .  S
C3064      C3181   1.485       .  S
Zr3087     O3088   2.430       .  S
Zr3087     O3089   2.462       .  S
Zr3087     O3090   2.459       .  S
Zr3087     O3093   2.381       .  S
Zr3087     O3095   2.355       .  S
Zr3087     O3096   2.398       .  S
Zr3087     O3097   2.429       .  S
Zr3087     O3098   2.437       .  S
O3088      H3144   0.990       .  S
O3088      H3152   0.989       .  S
O3089      C3109   1.286       .  A
O3090      C3111   1.279       .  A
O3091     Zr3101   2.429       .  S
O3091      C3110   1.284       .  A
O3092     Zr3100   2.379   1_455  S
O3092      C3111   1.262   1_455  A
O3093      C3110   1.280       .  A
O3094     Zr3102   2.510       .  S
O3094      C3109   1.296       .  A
O3095     Zr3100   2.407       .  S
O3095     Zr3102   2.369       .  S
O3096     Zr3101   2.427       .  S
O3096     Zr3102   2.336       .  S
O3096      H3131   0.966       .  S
O3097     Zr3100   2.401       .  S
O3097     Zr3117   2.385       .  S
O3097      H3134   0.964       .  S
O3098     Zr3101   2.432       .  S
O3098     Zr3117   2.403       .  S
Zr3099     O3124   2.432       .  S
Zr3099     O3118   2.547       .  S
Zr3099     O3126   2.351       .  S
Zr3099     O3114   2.476       .  S
Zr3099     O3105   2.449       .  S
Zr3099     O3106   2.408       .  S
Zr3099     O3107   2.339       .  S
Zr3099     O3108   2.366       .  S
Zr3100     O3119   2.449       .  S
Zr3100     O3112   2.445   1_655  S
Zr3100     O3113   2.351       .  S
Zr3100     O3106   2.399       .  S
Zr3100     O3107   2.400       .  S
Zr3101     O3103   2.435       .  S
Zr3101     O3125   2.436       .  S
Zr3101     O3127   2.515       .  S
Zr3101     O3105   2.375       .  S
Zr3101     O3108   2.389       .  S
Zr3102     O3128   2.436       .  S
Zr3102     O3129   2.435       .  S
Zr3102     O3104   2.436   1_655  S
Zr3102     O3105   2.448       .  S
Zr3102     O3106   2.382       .  S
O3103      H3140   0.990       .  S
O3104      H3135   0.990       .  S
O3104      H3149   0.990       .  S
O3106      H3132   0.961       .  S
O3107     Zr3117   2.401       .  S
O3108     Zr3117   2.370       .  S
O3108      H3133   0.966       .  S
C3109      C3970   1.541   1_655  S
C3110      C3829   1.462       .  S
C3111      C3714   1.471   1_655  S
O3112      H3148   0.989       .  S
O3113      C3115   1.265       .  A
O3114      C3115   1.296       .  A
C3115      C3749   1.450       .  S
O3116     Zr3117   2.437       .  S
O3116      H3145   0.990       .  S
Zr3117     O3120   2.439       .  S
Zr3117     O3121   2.437       .  S
Zr3117     O3122   2.425       .  S
O3118      C3123   1.307       .  A
O3119      H3136   0.989       .  S
O3119      H3151   0.989       .  S
O3120      H3137   0.990       .  S
O3121      H3141   0.990       .  S
O3121      H3150   0.990       .  S
O3122      C3123   1.277       .  A
C3123      C3196   1.523       .  S
O3124      H3143   0.990       .  S
O3124      H3147   0.990       .  S
O3125      H3139   0.990       .  S
O3125      H3146   0.990       .  S
O3126      C3130   1.269       .  A
O3127      C3130   1.299       .  A
O3128      H3138   0.990       .  S
O3129      H3142   0.990       .  S
C3130      C3247   1.482       .  S
Zr3153     O3154   2.400   1_556  S
Zr3153     O3161   2.372       .  S
Zr3153     O3162   2.385       .  S
Zr3153     O3163   2.406       .  S
Zr3153     O3164   2.417       .  S
O3154      H3218   0.989       .  S
O3155      C3175   1.278       .  A
O3156      C3177   1.303       .  A
O3157     Zr3167   2.601       .  S
O3158     Zr3166   2.409       .  S
O3159      C3176   1.289       .  A
O3160     Zr3168   2.388       .  S
O3160      C3175   1.274       .  A
O3161     Zr3166   2.411       .  S
O3162     Zr3167   2.372       .  S
O3163     Zr3166   2.412       .  S
O3163     Zr3183   2.414       .  S
O3163      H3200   0.965       .  S
O3164     Zr3167   2.403       .  S
O3164     Zr3183   2.411       .  S
Zr3165     O3190   2.434       .  S
Zr3165     O3184   2.422       .  S
Zr3165     O3192   2.422       .  S
Zr3165     O3180   2.484       .  S
Zr3165     O3171   2.400       .  S
Zr3165     O3172   2.384       .  S
Zr3165     O3173   2.366       .  S
Zr3165     O3174   2.398       .  S
Zr3166     O3185   2.438       .  S
Zr3166     O3178   2.434       .  S
Zr3166     O3179   2.427       .  S
Zr3166     O3172   2.391       .  S
Zr3166     O3173   2.397       .  S
Zr3167     O3169   2.434       .  S
Zr3167     O3191   2.436       .  S
Zr3167     O3193   2.568       .  S
Zr3167     O3171   2.405       .  S
Zr3167     O3174   2.396       .  S
Zr3168     O3194   2.436       .  S
Zr3168     O3195   2.439       .  S
Zr3168     O3170   2.439       .  S
O3169      H3206   0.990       .  S
O3170      H3201   0.990       .  S
O3170      H3215   0.990       .  S
O3172      H3198   0.965       .  S
O3173     Zr3183   2.383       .  S
O3174     Zr3183   2.372       .  S
O3174      H3199   0.966       .  S
C3175      C3241   1.431       .  S
O3179      C3181   1.278       .  A
O3180      C3181   1.300       .  A
O3182     Zr3183   2.440       .  S
O3182      H3211   0.990       .  S
Zr3183     O3186   2.438       .  S
Zr3183     O3187   2.438       .  S
Zr3183     O3188   2.462       .  S
O3184      C3189   1.287       .  A
O3185      H3202   0.990       .  S
O3185      H3217   0.990       .  S
O3186      H3203   0.990       .  S
O3187      H3207   0.990       .  S
O3187      H3216   0.990       .  S
O3188      C3189   1.288       .  A
C3189      C3255   1.482       .  S
O3190      H3209   0.991       .  S
O3190      H3213   0.990       .  S
O3191      H3205   0.990       .  S
O3192      C3196   1.283       .  A
O3193      C3196   1.316       .  A
O3194      H3204   0.990       .  S
Zr3219     O3220   2.407       .  S
Zr3219     O3221   2.402       .  S
Zr3219     O3222   2.493       .  S
Zr3219     O3225   2.474       .  S
Zr3219     O3227   2.378       .  S
Zr3219     O3228   2.381       .  S
Zr3219     O3229   2.411       .  S
Zr3219     O3230   2.415       .  S
O3220      H3276   0.987       .  S
O3220      H3284   0.990       .  S
O3221      C3241   1.279       .  A
O3222      C3243   1.298       .  A
O3223     Zr3233   2.589       .  S
O3223      C3242   1.319       .  A
O3224     Zr3232   2.400       .  S
O3224      C3243   1.272       .  A
O3225      C3242   1.287       .  A
O3226     Zr3234   2.382       .  S
O3226      C3241   1.273       .  A
O3227     Zr3232   2.413       .  S
O3227     Zr3234   2.391       .  S
O3228     Zr3233   2.366       .  S
O3228     Zr3234   2.388       .  S
O3228      H3263   0.965       .  S
O3229     Zr3232   2.414       .  S
O3229     Zr3249   2.414       .  S
O3229      H3266   0.965       .  S
O3230     Zr3233   2.398       .  S
O3230     Zr3249   2.419       .  S
Zr3231     O3256   2.428       .  S
Zr3231     O3250   2.403       .  S
Zr3231     O3258   2.392       .  S
Zr3231     O3246   2.456       .  S
Zr3231     O3237   2.400       .  S
Zr3231     O3238   2.377       .  S
Zr3231     O3239   2.357       .  S
Zr3231     O3240   2.392       .  S
Zr3232     O3251   2.438       .  S
Zr3232     O3244   2.435       .  S
Zr3232     O3245   2.432       .  S
Zr3232     O3238   2.386       .  S
Zr3232     O3239   2.398       .  S
Zr3233     O3235   2.434       .  S
Zr3233     O3257   2.435       .  S
Zr3233     O3259   2.542       .  S
Zr3233     O3237   2.409       .  S
Zr3233     O3240   2.397       .  S
Zr3234     O3260   2.434       .  S
Zr3234     O3261   2.438       .  S
Zr3234     O3236   2.437       .  S
Zr3234     O3237   2.379       .  S
Zr3234     O3238   2.383       .  S
O3235      H3272   0.990       .  S
O3236      H3267   0.990       .  S
O3236      H3281   0.990       .  S
O3238      H3264   0.965       .  S
O3239     Zr3249   2.381       .  S
O3240     Zr3249   2.365       .  S
O3240      H3265   0.966       .  S
O3244      H3280   0.990       .  S
O3245      C3247   1.279       .  A
O3246      C3247   1.294       .  A
O3248     Zr3249   2.440       .  S
O3248      H3277   0.990       .  S
Zr3249     O3252   2.438       .  S
Zr3249     O3253   2.438       .  S
Zr3249     O3254   2.477       .  S
O3250      C3255   1.281       .  A
O3251      H3268   0.990       .  S
O3251      H3283   0.990       .  S
O3252      H3269   0.990       .  S
O3253      H3273   0.990       .  S
O3253      H3282   0.990       .  S
O3254      C3255   1.291       .  A
O3256      H3275   0.990       .  S
O3256      H3279   0.990       .  S
O3257      H3271   0.990       .  S
O3257      H3278   0.990       .  S
O3258      C3262   1.278       .  A
O3259      C3262   1.309       .  A
O3260      H3270   0.990       .  S
O3261      H3274   0.990       .  S
Zr3285     O3286   2.419       .  S
Zr3285     O3287   2.420       .  S
Zr3285     O3288   2.419       .  S
Zr3285     O3291   2.435       .  S
Zr3285     O3293   2.388       .  S
Zr3285     O3294   2.381       .  S
Zr3285     O3295   2.440       .  S
Zr3285     O3296   2.386       .  S
O3286      H3342   0.987       .  S
O3286      H3350   0.986       .  S
O3287      C3307   1.279       .  A
O3288      C3309   1.269       .  A
O3289     Zr3299   2.403       .  S
O3289      C3308   1.266       .  A
O3290     Zr3298   2.447       .  S
O3290      C3309   1.276       .  A
O3291      C3308   1.279       .  A
O3292     Zr3300   2.518       .  S
O3292      C3307   1.298       .  A
O3293     Zr3298   2.429       .  S
O3293     Zr3300   2.361       .  S
O3294     Zr3299   2.409       .  S
O3294     Zr3300   2.358       .  S
O3294      H3329   0.966       .  S
O3295     Zr3298   2.444       .  S
O3295     Zr3315   2.382       .  S
O3295      H3332   0.960       .  S
O3296     Zr3299   2.376       .  S
O3296     Zr3315   2.365       .  S
Zr3297     O3322   2.437       .  S
Zr3297     O3316   2.585       .  S
Zr3297     O3324   2.441       .  S
Zr3297     O3312   2.333       .  S
Zr3297     O3303   2.407       .  S
Zr3297     O3304   2.464       .  S
Zr3297     O3305   2.377       .  S
Zr3297     O3306   2.337       .  S
Zr3298     O3317   2.440       .  S
Zr3298     O3310   2.434       .  S
Zr3298     O3311   2.504       .  S
Zr3298     O3304   2.397       .  S
Zr3298     O3305   2.401       .  S
Zr3299     O3301   2.447       .  S
Zr3299     O3323   2.450       .  S
Zr3299     O3325   2.385       .  S
Zr3299     O3303   2.360       .  S
Zr3299     O3306   2.413       .  S
Zr3300     O3326   2.435       .  S
Zr3300     O3327   2.437       .  S
Zr3300     O3302   2.437       .  S
Zr3300     O3303   2.419       .  S
Zr3300     O3304   2.427       .  S
O3301      H3338   0.987       .  S
O3302      H3333   0.990       .  S
O3302      H3347   0.990       .  S
O3304      H3330   0.966       .  S
O3305     Zr3315   2.374       .  S
O3306     Zr3315   2.393       .  S
O3306      H3331   0.964       .  S
C3307      C3925   1.510       .  S
C3308      C4101   1.471       .  S
C3309      C3765   1.482       .  S
O3310      H3346   0.990       .  S
O3311      C3313   1.290       .  A
O3312      C3313   1.253       .  A
C3313      C3592   1.456       .  S
O3314     Zr3315   2.439       .  S
O3314      H3343   0.990       .  S
Zr3315     O3318   2.436       .  S
Zr3315     O3319   2.441       .  S
Zr3315     O3320   2.397       .  S
O3316      C3321   1.318       .  A
O3317      H3334   0.990       .  S
O3317      H3349   0.990       .  S
O3318      H3335   0.990       .  S
O3319      H3339   0.990       .  S
O3319      H3348   0.990       .  S
O3320      C3321   1.274       .  A
C3321      C3639   1.527       .  S
O3322      H3341   0.990       .  S
O3322      H3345   0.984       .  S
O3323      H3337   0.990       .  S
O3323      H3344   0.990   1_545  S
O3324      C3328   1.284       .  A
O3325      C3328   1.267       .  A
O3326      H3336   0.990       .  S
O3327      H3340   0.990       .  S
C3328      C3701   1.447       .  S
Zr3351     O3352   2.428       .  S
Zr3351     O3353   2.430       .  S
Zr3351     O3354   2.430       .  S
Zr3351     O3357   2.432       .  S
Zr3351     O3359   2.365       .  S
Zr3351     O3360   2.384       .  S
Zr3351     O3361   2.411       .  S
Zr3351     O3362   2.341       .  S
O3352      H3408   0.985       .  S
O3352      H3416   0.985       .  S
O3353      C3373   1.280       .  A
O3354      C3375   1.272       .  A
O3355     Zr3365   2.339       .  S
O3355      C3374   1.261       .  A
O3356     Zr3364   2.428       .  S
O3356      C3375   1.275       .  A
O3357      C3374   1.275       .  A
O3358     Zr3366   2.552       .  S
O3358      C3373   1.304       .  A
O3359     Zr3364   2.436       .  S
O3359     Zr3366   2.377       .  S
O3360     Zr3365   2.378       .  S
O3360     Zr3366   2.375       .  S
O3360      H3395   0.965       .  S
O3361     Zr3364   2.458       .  S
O3361     Zr3381   2.405       .  S
O3361      H3398   0.958       .  S
O3362     Zr3365   2.346       .  S
O3362     Zr3381   2.400       .  S
Zr3363     O3388   2.438       .  S
Zr3363     O3382   2.555       .  S
Zr3363     O3390   2.410       .  S
Zr3363     O3378   2.350       .  S
Zr3363     O3369   2.444       .  S
Zr3363     O3370   2.444       .  S
Zr3363     O3371   2.371       .  S
Zr3363     O3372   2.369       .  S
Zr3364     O3383   2.437       .  S
Zr3364     O3376   2.436       .  S
Zr3364     O3377   2.485       .  S
Zr3364     O3370   2.400       .  S
Zr3364     O3371   2.412       .  S
Zr3365     O3367   2.425       .  S
Zr3365     O3389   2.438       .  S
Zr3365     O3391   2.369       .  S
Zr3365     O3369   2.350       .  S
Zr3365     O3372   2.407       .  S
Zr3366     O3392   2.434       .  S
Zr3366     O3393   2.436       .  S
Zr3366     O3368   2.439       .  S
Zr3366     O3369   2.446       .  S
Zr3366     O3370   2.463       .  S
O3367      H3404   0.990       .  S
O3368      H3399   0.990       .  S
O3368      H3413   0.990       .  S
O3370      H3396   0.966       .  S
O3371     Zr3381   2.358       .  S
O3372     Zr3381   2.402       .  S
O3372      H3397   0.965       .  S
C3373      C3893   1.534       .  S
C3374      C4037   1.456       .  S
C3375      C3730   1.460       .  S
O3376      H3412   0.990       .  S
O3377      C3379   1.292       .  A
O3378      C3379   1.271       .  A
C3379      C3638   1.467       .  S
O3380     Zr3381   2.440       .  S
O3380      H3409   0.990       .  S
Zr3381     O3384   2.440       .  S
Zr3381     O3385   2.446       .  S
Zr3381     O3386   2.407       .  S
O3382      C3387   1.309       .  A
O3383      H3400   0.990       .  S
O3383      H3415   0.990       .  S
O3384      H3401   0.990       .  S
O3385      H3405   0.990       .  S
O3385      H3414   0.989       .  S
O3386      C3387   1.274       .  A
C3387      C3577   1.519       .  S
O3388      H3407   0.990       .  S
O3388      H3411   0.988       .  S
O3389      H3403   0.990   1_545  S
O3389      H3410   0.989       .  S
O3390      C3394   1.280       .  A
O3391      C3394   1.266       .  A
O3392      H3402   0.990       .  S
O3393      H3406   0.990       .  S
C3394      C3698   1.436       .  S
Zr3417     O3419   2.470       .  S
Zr3417     O3420   2.428       .  S
Zr3417     O3423   2.468   1_556  S
Zr3417     O3425   2.399       .  S
Zr3417     O3426   2.385       .  S
Zr3417     O3427   2.472       .  S
Zr3417     O3428   2.429   1_556  S
O3418      H3474   0.987       .  S
O3418      H3482   0.985       .  S
O3419      C3439   1.289       .  A
O3420      C3441   1.268       .  A
O3421     Zr3431   2.398   1_554  S
O3421      C3440   1.276       .  A
O3422     Zr3430   2.483       .  S
O3422      C3441   1.285       .  A
O3423      C3440   1.286       .  A
O3424     Zr3432   2.519       .  S
O3424      C3439   1.299       .  A
O3425     Zr3430   2.432       .  S
O3425     Zr3432   2.378       .  S
O3426     Zr3431   2.336       .  S
O3426     Zr3432   2.378       .  S
O3426      H3461   0.964       .  S
O3427     Zr3430   2.452       .  S
O3427     Zr3447   2.387   1_556  S
O3427      H3464   0.951       .  S
O3428     Zr3431   2.386   1_554  S
O3428     Zr3447   2.382       .  S
Zr3429     O3454   2.436       .  S
Zr3429     O3448   2.531       .  S
Zr3429     O3456   2.412       .  S
Zr3429     O3444   2.327       .  S
Zr3429     O3435   2.440       .  S
Zr3429     O3436   2.429       .  S
Zr3429     O3437   2.383       .  S
Zr3429     O3438   2.273       .  S
Zr3430     O3449   2.437       .  S
Zr3430     O3442   2.435       .  S
Zr3430     O3443   2.507       .  S
Zr3430     O3436   2.425       .  S
Zr3430     O3437   2.429       .  S
Zr3431     O3455   2.437       .  S
Zr3431     O3457   2.366       .  S
Zr3431     O3435   2.397       .  S
Zr3431     O3438   2.350       .  S
Zr3432     O3458   2.434       .  S
Zr3432     O3459   2.436       .  S
Zr3432     O3434   2.439       .  S
Zr3432     O3435   2.453       .  S
Zr3432     O3436   2.452       .  S
O3434      H3465   0.990       .  S
O3434      H3479   0.990       .  S
O3436      H3462   0.965       .  S
O3437     Zr3447   2.375   1_556  S
O3438     Zr3447   2.344   1_556  S
O3438      H3463   0.960       .  S
C3439      C3842   1.524       .  S
C3441      C3778   1.485       .  S
O3442      H3478   0.990       .  S
O3443      C3445   1.299       .  A
O3444      C3445   1.266       .  A
C3445      C3572   1.466       .  S
O3446      H3475   0.990       .  S
Zr3447     O3452   2.424       .  S
O3448      C3453   1.303   1_556  A
O3449      H3466   0.990       .  S
O3449      H3481   0.990       .  S
O3450      H3467   0.990       .  S
O3451      H3471   0.990       .  S
O3451      H3480   0.988       .  S
O3452      C3453   1.277       .  A
O3454      H3473   0.990       .  S
O3454      H3477   0.990       .  S
O3455      H3469   0.990       .  S
O3455      H3476   0.990       .  S
O3456      C3460   1.276       .  A
O3457      C3460   1.266       .  A
O3458      H3468   0.990       .  S
O3459      H3472   0.990       .  S
C3460      C3682   1.444       .  S
Zr3483     O3484   2.433       .  S
Zr3483     O3485   2.449       .  S
Zr3483     O3486   2.405       .  S
Zr3483     O3489   2.460       .  S
Zr3483     O3491   2.389       .  S
Zr3483     O3492   2.384       .  S
Zr3483     O3493   2.457       .  S
Zr3483     O3494   2.394       .  S
O3484      H3540   0.986       .  S
O3484      H3548   0.987       .  S
O3485      C3505   1.289   1_556  A
O3486      C3507   1.263       .  A
O3487     Zr3497   2.366       .  S
O3487      C3506   1.256       .  A
O3488     Zr3496   2.489       .  S
O3488      C3507   1.281       .  A
O3489      C3506   1.273       .  A
O3490     Zr3498   2.545       .  S
O3491     Zr3496   2.434       .  S
O3492     Zr3497   2.411       .  S
O3492      H3527   0.964       .  S
O3493     Zr3496   2.450       .  S
O3493     Zr3513   2.406       .  S
O3493      H3530   0.966       .  S
O3494     Zr3497   2.374       .  S
O3494     Zr3513   2.365       .  S
Zr3495     O3514   2.541       .  S
Zr3495     O3522   2.388       .  S
Zr3495     O3501   2.385       .  S
Zr3495     O3503   2.368       .  S
Zr3495     O3504   2.330       .  S
Zr3496     O3515   2.436       .  S
Zr3496     O3503   2.390       .  S
Zr3497     O3499   2.436       .  S
Zr3497     O3521   2.419       .  S
Zr3497     O3523   2.414       .  S
Zr3497     O3501   2.348       .  S
Zr3497     O3504   2.377       .  S
Zr3498     O3524   2.435       .  S
Zr3498     O3525   2.436       .  S
Zr3498     O3500   2.436       .  S
Zr3498     O3502   2.441       .  S
O3499      H3536   0.989       .  S
O3500      H3531   0.990       .  S
O3500      H3545   0.990       .  S
O3502      H3528   0.965       .  S
O3503     Zr3513   2.375       .  S
O3504     Zr3513   2.416       .  S
O3504      H3529   0.966       .  S
C3505      C3813   1.541       .  S
C3506      C4002   1.453       .  S
C3507      C3717   1.495       .  S
O3508      H3544   0.990       .  S
O3509      C3511   1.308       .  A
O3510      C3511   1.252       .  A
C3511      C3658   1.486       .  S
O3512     Zr3513   2.439       .  S
O3512      H3541   0.990       .  S
Zr3513     O3516   2.437       .  S
Zr3513     O3517   2.440       .  S
Zr3513     O3518   2.420       .  S
O3514      C3519   1.304       .  A
O3515      H3532   0.990       .  S
O3515      H3547   0.990       .  S
O3516      H3533   0.990       .  S
O3517      H3537   0.990       .  S
O3517      H3546   0.990       .  S
O3518      C3519   1.277       .  A
C3519      C3573   1.516       .  S
O3520      H3539   0.991       .  S
O3520      H3543   0.985       .  S
O3521      H3535   0.987       .  S
O3521      H3542   0.989       .  S
O3522      C3526   1.270       .  A
O3523      C3526   1.272       .  A
O3524      H3534   0.990       .  S
O3525      H3538   0.990       .  S
C3526      C3685   1.475       .  S
Zr3549     O3550   2.442       .  S
Zr3549     O3551   2.410       .  S
Zr3549     O3552   2.433       .  S
Zr3549     O3555   2.443       .  S
Zr3549     O3557   2.384       .  S
Zr3549     O3558   2.368       .  S
Zr3549     O3559   2.408       .  S
Zr3549     O3560   2.391       .  S
O3550      H3606   0.990       .  S
O3550      H3614   0.990       .  S
O3551      C3571   1.282       .  A
O3552      C3573   1.282       .  A
O3553     Zr3563   2.403       .  S
O3553      C3572   1.273       .  A
O3554     Zr3562   2.543       .  S
O3554      C3573   1.309       .  A
O3555      C3572   1.292       .  A
O3556     Zr3564   2.440       .  S
O3556      C3571   1.282       .  A
O3557     Zr3562   2.401       .  S
O3557     Zr3564   2.383       .  S
O3558     Zr3563   2.398       .  S
O3558     Zr3564   2.378       .  S
O3558      H3593   0.966       .  S
O3559     Zr3562   2.412       .  S
O3559     Zr3579   2.390       .  S
O3559      H3596   0.965       .  S
O3560     Zr3563   2.395       .  S
O3560     Zr3579   2.402       .  S
Zr3561     O3586   2.451       .  S
Zr3561     O3580   2.372       .  S
Zr3561     O3588   2.453       .  S
Zr3561     O3576   2.443       .  S
Zr3561     O3567   2.393       .  S
Zr3561     O3568   2.412       .  S
Zr3561     O3569   2.385       .  S
Zr3561     O3570   2.373       .  S
Zr3562     O3581   2.434       .  S
Zr3562     O3574   2.434       .  S
Zr3562     O3575   2.540       .  S
Zr3562     O3568   2.417       .  S
Zr3562     O3569   2.402       .  S
Zr3563     O3565   2.436       .  S
Zr3563     O3587   2.437       .  S
Zr3563     O3589   2.389       .  S
Zr3563     O3567   2.408       .  S
Zr3563     O3570   2.402       .  S
Zr3564     O3590   2.435       .  S
Zr3564     O3591   2.437       .  S
Zr3564     O3566   2.436       .  S
Zr3564     O3567   2.408       .  S
Zr3564     O3568   2.392       .  S
O3565      H3602   0.990       .  S
O3566      H3597   0.990       .  S
O3566      H3611   0.990       .  S
O3568      H3594   0.965       .  S
O3569     Zr3579   2.384       .  S
O3570     Zr3579   2.381       .  S
O3570      H3595   0.966       .  S
C3571      C3651   1.472       .  S
O3574      H3610   0.990       .  S
O3575      C3577   1.309       .  A
O3576      C3577   1.281       .  A
O3578     Zr3579   2.439       .  S
O3578      H3607   0.990       .  S
Zr3579     O3582   2.437       .  S
Zr3579     O3583   2.440       .  S
Zr3579     O3584   2.428       .  S
O3580      C3585   1.270       .  A
O3581      H3598   0.990       .  S
O3581      H3613   0.990       .  S
O3582      H3599   0.990       .  S
O3583      H3603   0.990       .  S
O3583      H3612   0.990       .  S
O3584      C3585   1.279       .  A
C3585      C3637   1.455       .  S
O3586      H3605   0.990       .  S
O3586      H3609   0.990       .  S
O3587      H3601   0.990       .  S
O3587      H3608   0.990       .  S
O3588      C3592   1.291       .  A
O3589      C3592   1.267       .  A
O3590      H3600   0.990       .  S
O3591      H3604   0.990       .  S
Zr3615     O3616   2.433       .  S
Zr3615     O3617   2.404       .  S
Zr3615     O3618   2.429       .  S
Zr3615     O3621   2.412       .  S
Zr3615     O3623   2.374       .  S
Zr3615     O3624   2.368       .  S
Zr3615     O3625   2.402       .  S
Zr3615     O3626   2.394       .  S
O3616      H3672   0.990       .  S
O3616      H3680   0.990       .  S
O3617      C3637   1.282       .  A
O3618      C3639   1.277       .  A
O3619     Zr3629   2.428       .  S
O3619      C3638   1.278       .  A
O3620     Zr3628   2.566       .  S
O3620      C3639   1.314       .  A
O3621      C3638   1.284       .  A
O3622     Zr3630   2.408       .  S
O3622      C3637   1.276       .  A
O3623     Zr3628   2.387       .  S
O3623     Zr3630   2.391       .  S
O3624     Zr3629   2.394       .  S
O3624     Zr3630   2.385       .  S
O3624      H3659   0.966       .  S
O3625     Zr3628   2.400       .  S
O3625     Zr3645   2.406       .  S
O3625      H3662   0.966       .  S
O3626     Zr3629   2.393       .  S
O3626     Zr3645   2.408       .  S
Zr3627     O3652   2.442       .  S
Zr3627     O3654   2.514       .  S
Zr3627     O3642   2.464       .  S
Zr3627     O3633   2.388       .  S
Zr3627     O3634   2.413       .  S
Zr3627     O3635   2.390       .  S
Zr3627     O3636   2.376       .  S
Zr3628     O3647   2.434       .  S
Zr3628     O3640   2.434       .  S
Zr3628     O3641   2.519       .  S
Zr3628     O3634   2.426       .  S
Zr3628     O3635   2.414       .  S
Zr3629     O3631   2.435       .  S
Zr3629     O3653   2.439       .  S
Zr3629     O3655   2.394       .  S
Zr3629     O3633   2.416       .  S
Zr3629     O3636   2.411       .  S
Zr3630     O3656   2.435       .  S
Zr3630     O3657   2.437       .  S
Zr3630     O3632   2.437       .  S
Zr3630     O3633   2.395       .  S
Zr3630     O3634   2.381       .  S
O3631      H3668   0.990       .  S
O3632      H3663   0.990       .  S
O3632      H3677   0.990       .  S
O3634      H3660   0.965       .  S
O3635     Zr3645   2.375       .  S
O3636     Zr3645   2.385       .  S
O3636      H3661   0.966       .  S
O3640      H3676   0.990       .  S
O3641      C3643   1.303       .  A
O3642      C3643   1.283       .  A
O3644     Zr3645   2.439       .  S
O3644      H3673   0.990       .  S
Zr3645     O3648   2.437       .  S
O3646      C3651   1.275       .  A
O3647      H3664   0.990       .  S
O3647      H3679   0.990       .  S
O3649      H3669   0.990   1_554  S
O3649      H3678   0.990       .  S
O3650      C3651   1.283       .  A
O3652      H3671   0.991       .  S
O3652      H3675   0.991       .  S
O3653      H3667   0.990       .  S
O3653      H3674   0.990       .  S
O3654      C3658   1.307       .  A
O3655      C3658   1.270       .  A
O3656      H3666   0.990       .  S
O3657      H3670   0.990       .  S
C3681      C3682   1.400       .  A
C3681      C3686   1.399       .  A
C3681      H3688   1.084       .  S
C3682      C3683   1.400   1_556  A
C3683      C3684   1.386   1_554  A
C3683      C3690   1.518       .  S
C3684      C3685   1.414       .  A
C3685      C3686   1.420       .  A
C3686      C3687   1.518       .  S
C3687      F3691   1.385       .  S
C3687      F3692   1.379       .  S
C3687      F3693   1.382       .  S
C3690      F3694   1.383       .  S
C3690      F3695   1.383       .  S
C3697      C3698   1.400       .  A
C3697      C3702   1.394       .  A
C3697      H3704   1.084       .  S
C3698      C3699   1.403       .  A
C3699      C3700   1.393       .  A
C3699      C3706   1.517       .  S
C3700      C3701   1.401       .  A
C3700      H3705   1.077       .  S
C3701      C3702   1.406       .  A
C3702      C3703   1.512       .  S
C3703      F3707   1.385       .  S
C3703      F3708   1.377       .  S
C3703      F3709   1.383       .  S
C3706      F3710   1.382       .  S
C3706      F3711   1.383       .  S
C3706      F3712   1.384       .  S
C3713      C3714   1.409       .  A
C3713      C3718   1.405       .  A
C3713      H3720   1.070   1_455  S
C3714      C3715   1.396       .  A
C3715      C3716   1.404       .  A
C3715      C3722   1.523       .  S
C3716      C3717   1.417       .  A
C3716      H3721   1.059       .  S
C3717      C3718   1.407       .  A
C3718      C3719   1.514       .  S
C3719      F3723   1.383       .  S
C3719      F3725   1.382       .  S
C3722      F3726   1.381   1_455  S
C3722      F3727   1.384       .  S
C3722      F3728   1.377       .  S
C3729      C3730   1.397       .  A
C3729      C3734   1.402       .  A
C3729      H3736   1.083       .  S
C3730      C3731   1.403       .  A
C3731      C3732   1.400       .  A
C3731      C3738   1.515       .  S
C3732      C3733   1.408       .  A
C3732      H3737   1.080   1_455  S
C3733      C3734   1.426       .  A
C3734      C3735   1.525       .  S
C3735      F3739   1.373       .  S
C3735      F3740   1.379       .  S
C3735      F3741   1.382       .  S
C3738      F3742   1.382       .  S
C3738      F3743   1.383       .  S
C3738      F3744   1.384   1_455  S
C3745      C3746   1.409       .  A
C3745      C3750   1.383   1_655  A
C3745      H3752   1.085   1_655  S
C3746      C3747   1.420       .  A
C3747      C3748   1.397       .  A
C3747      C3754   1.520       .  S
C3748      C3749   1.397       .  A
C3748      H3753   1.084       .  S
C3749      C3750   1.393   1_655  A
C3750      C3751   1.508       .  S
C3751      F3755   1.383       .  S
C3751      F3756   1.383       .  S
C3751      F3757   1.384       .  S
C3754      F3758   1.378       .  S
C3754      F3759   1.377       .  S
C3754      F3760   1.385       .  S
C3761      C3762   1.407       .  A
C3761      C3766   1.398       .  A
C3761      H3768   1.081       .  S
C3762      C3763   1.427       .  A
C3763      C3764   1.411       .  A
C3763      C3770   1.521       .  S
C3764      C3765   1.405       .  A
C3764      H3769   1.082       .  S
C3765      C3766   1.416       .  A
C3766      C3767   1.517       .  S
C3767      F3771   1.383       .  S
C3767      F3772   1.377       .  S
C3767      F3773   1.381       .  S
C3770      F3774   1.376       .  S
C3770      F3775   1.382       .  S
C3770      F3776   1.384       .  S
C3777      C3782   1.409       .  A
C3777      H3784   1.083       .  S
C3778      C3779   1.409       .  A
C3779      C3786   1.509       .  S
C3780      C3781   1.410       .  A
C3780      H3785   1.082       .  S
C3781      C3782   1.426       .  A
C3782      C3783   1.520       .  S
C3783      F3787   1.375       .  S
C3783      F3788   1.376       .  S
C3783      F3789   1.384       .  S
C3786      F3790   1.378       .  S
C3786      F3791   1.384       .  S
C3786      F3792   1.383       .  S
C3793      C3794   1.411       .  A
C3793      C3798   1.405       .  A
C3793      H3800   1.082       .  S
C3794      C3795   1.408       .  A
C3795      C3796   1.393       .  A
C3795      C3802   1.515       .  S
C3796      C3797   1.398       .  A
C3796      H3801   1.085       .  S
C3797      C3798   1.409       .  A
C3798      C3799   1.504       .  S
C3799      F3803   1.383       .  S
C3799      F3804   1.382       .  S
C3799      F3805   1.385       .  S
C3802      F3806   1.384       .  S
C3802      F3807   1.372       .  S
C3802      F3808   1.366       .  S
C3809      C3810   1.414       .  A
C3809      C3814   1.435       .  A
C3809      H3816   1.083       .  S
C3811      C3812   1.429       .  A
C3811      C3818   1.516   1_455  S
C3812      C3813   1.415       .  A
C3812      H3817   1.078       .  S
C3814      C3815   1.514       .  S
C3815      F3819   1.384       .  S
C3815      F3821   1.383       .  S
C3818      F3822   1.382   1_554  S
C3818      F3824   1.384       .  S
C3825      C3826   1.413       .  A
C3825      C3830   1.408       .  A
C3825      H3832   1.083       .  S
C3826      C3827   1.439       .  A
C3827      C3828   1.412       .  A
C3827      C3834   1.520       .  S
C3828      C3829   1.392       .  A
C3828      H3833   1.084       .  S
C3829      C3830   1.408       .  A
C3830      C3831   1.504       .  S
C3831      F3835   1.383       .  S
C3831      F3836   1.385       .  S
C3831      F3837   1.383       .  S
C3834      F3838   1.373       .  S
C3834      F3839   1.381       .  S
C3834      F3840   1.383       .  S
C3841      C3842   1.407       .  A
C3841      C3846   1.424       .  A
C3841      H3848   1.083       .  S
C3842      C3843   1.430       .  A
C3843      C3844   1.428       .  A
C3843      C3850   1.513       .  S
C3844      C3845   1.408       .  A
C3844      H3849   1.084       .  S
C3845      C3846   1.427       .  A
C3846      C3847   1.514       .  S
C3847      F3851   1.385       .  S
C3847      F3852   1.383       .  S
C3847      F3853   1.378       .  S
C3850      F3854   1.384       .  S
C3850      F3855   1.382       .  S
C3850      F3856   1.382       .  S
C3857      C3858   1.410       .  A
C3857      C3862   1.406       .  A
C3857      H3864   1.084       .  S
C3858      C3859   1.431       .  A
C3859      C3860   1.402       .  A
C3859      C3866   1.524       .  S
C3860      C3861   1.389       .  A
C3860      H3865   1.087       .  S
C3861      C3862   1.410       .  A
C3862      C3863   1.502       .  S
C3863      F3867   1.383       .  S
C3863      F3868   1.385       .  S
C3863      F3869   1.379       .  S
C3866      F3870   1.377       .  S
C3866      F3872   1.381       .  S
C3873      C3874   1.394       .  A
C3873      C3878   1.396       .  A
C3873      H3880   1.083       .  S
C3874      C3875   1.403       .  A
C3875      C3876   1.388       .  A
C3875      C3882   1.511       .  S
C3876      C3877   1.406       .  A
C3877      C3878   1.422       .  A
C3878      C3879   1.515       .  S
C3879      F3883   1.385       .  S
C3879      F3884   1.372       .  S
C3879      F3885   1.380       .  S
C3882      F3886   1.381       .  S
C3882      F3887   1.382       .  S
C3889      C3890   1.403   1_545  A
C3889      C3894   1.424       .  A
C3889      H3896   1.083   1_455  S
C3890      C3891   1.423       .  A
C3891      C3892   1.433       .  A
C3891      C3898   1.508       .  S
C3892      C3893   1.412   1_565  A
C3892      H3897   1.083       .  S
C3893      C3894   1.430       .  A
C3894      C3895   1.512       .  S
C3895      F3899   1.385   1_455  S
C3895      F3900   1.383       .  S
C3895      F3901   1.373       .  S
C3898      F3902   1.383       .  S
C3898      F3903   1.375       .  S
C3898      F3904   1.384       .  S
C3905      C3906   1.383       .  A
C3905      C3910   1.401       .  A
C3905      H3912   1.086       .  S
C3906      C3907   1.412       .  A
C3907      C3908   1.409       .  A
C3907      C3914   1.505       .  S
C3908      C3909   1.413       .  A
C3908      H3913   1.084       .  S
C3909      C3910   1.444       .  A
C3910      C3911   1.522       .  S
C3911      F3915   1.381       .  S
C3911      F3916   1.370   1_565  S
C3911      F3917   1.371   1_565  S
C3914      F3918   1.385       .  S
C3914      F3919   1.384       .  S
C3914      F3920   1.382       .  S
C3921      C3922   1.408       .  A
C3921      C3926   1.424   1_565  A
C3921      H3928   1.083   1_565  S
C3922      C3923   1.425       .  A
C3923      C3924   1.421       .  A
C3923      C3930   1.513       .  S
C3924      C3925   1.404   1_565  A
C3924      H3929   1.083       .  S
C3925      C3926   1.423       .  A
C3926      C3927   1.514       .  S
C3927      F3931   1.384       .  S
C3927      F3932   1.383       .  S
C3927      F3933   1.380       .  S
C3930      F3934   1.384       .  S
C3930      F3935   1.379       .  S
C3930      F3936   1.385       .  S
C3937      C3938   1.421       .  A
C3937      C3942   1.415       .  A
C3937      H3944   1.082       .  S
C3938      C3939   1.401       .  A
C3939      C3940   1.402       .  A
C3939      C3946   1.508       .  S
C3940      C3941   1.407       .  A
C3940      H3945   1.078       .  S
C3941      C3942   1.399       .  A
C3942      C3943   1.511       .  S
C3943      F3947   1.364       .  S
C3943      F3948   1.382       .  S
C3943      F3949   1.376       .  S
C3946      F3950   1.382       .  S
C3946      F3951   1.384       .  S
C3946      F3952   1.383       .  S
C3953      C3954   1.401       .  A
C3953      C3958   1.393       .  A
C3953      H3960   1.083       .  S
C3954      C3955   1.404       .  A
C3955      C3956   1.383       .  A
C3955      C3962   1.513       .  S
C3956      C3957   1.395       .  A
C3956      H3961   1.084       .  S
C3957      C3958   1.406       .  A
C3958      C3959   1.516       .  S
C3959      F3963   1.385       .  S
C3959      F3964   1.380       .  S
C3959      F3965   1.383       .  S
C3962      F3966   1.383       .  S
C3962      F3967   1.383       .  S
C3962      F3968   1.383       .  S
C3969      C3970   1.417       .  A
C3969      C3974   1.430       .  A
C3969      H3976   1.083   1_455  S
C3970      C3971   1.427       .  A
C3971      C3972   1.432       .  A
C3971      C3978   1.516       .  S
C3972      C3973   1.415       .  A
C3972      H3977   1.082       .  S
C3973      C3974   1.424       .  A
C3974      C3975   1.516       .  S
C3975      F3979   1.384       .  S
C3975      F3980   1.383       .  S
C3975      F3981   1.383       .  S
C3978      F3982   1.382       .  S
C3978      F3983   1.384       .  S
C3978      F3984   1.384       .  S
C3985      C3986   1.404       .  A
C3985      C3990   1.399       .  A
C3985      H3992   1.085       .  S
C3986      C3987   1.417       .  A
C3987      C3988   1.394       .  A
C3987      C3994   1.519       .  S
C3988      C3989   1.401       .  A
C3988      H3993   1.083       .  S
C3989      C3990   1.407       .  A
C3990      C3991   1.508       .  S
C3991      F3995   1.369       .  S
C3991      F3996   1.383       .  S
C3991      F3997   1.378       .  S
C3994      F3998   1.375       .  S
C3994      F3999   1.382   1_455  S
C3994      F4000   1.383       .  S
C4001      C4002   1.408       .  A
C4001      C4006   1.397       .  A
C4001      H4008   1.086       .  S
C4002      C4003   1.420       .  A
C4003      C4004   1.396       .  A
C4003      C4010   1.518       .  S
C4004      C4005   1.402       .  A
C4004      H4009   1.086       .  S
C4005      C4006   1.408       .  A
C4006      C4007   1.515       .  S
C4007      F4011   1.383       .  S
C4007      F4012   1.383       .  S
C4007      F4013   1.383       .  S
C4010      F4014   1.378       .  S
C4010      F4015   1.376       .  S
C4010      F4016   1.379       .  S
C4017      C4018   1.409       .  A
C4017      C4022   1.433       .  A
C4017      H4024   1.083       .  S
C4018      C4019   1.422   1_545  A
C4019      C4020   1.434       .  A
C4019      C4026   1.514   1_455  S
C4020      C4021   1.414       .  A
C4020      H4025   1.083       .  S
C4021      C4022   1.437   1_565  A
C4022      C4023   1.512       .  S
C4023      F4027   1.381       .  S
C4023      F4028   1.382   1_545  S
C4023      F4029   1.383       .  S
C4026      F4030   1.380       .  S
C4026      F4031   1.382       .  S
C4026      F4032   1.384       .  S
C4033      C4034   1.404       .  A
C4033      C4038   1.405       .  A
C4033      H4040   1.060   1_545  S
C4034      C4035   1.406       .  A
C4035      C4036   1.410       .  A
C4035      C4042   1.515       .  S
C4036      C4037   1.407       .  A
C4036      H4041   1.077       .  S
C4037      C4038   1.395       .  A
C4038      C4039   1.527       .  S
C4039      F4043   1.360       .  S
C4039      F4044   1.379       .  S
C4039      F4045   1.382       .  S
C4042      F4046   1.383       .  S
C4042      F4047   1.383       .  S
C4042      F4048   1.385       .  S
C4049      C4050   1.390       .  A
C4049      C4054   1.390       .  A
C4049      H4056   1.086       .  S
C4050      C4051   1.420       .  A
C4051      C4052   1.408       .  A
C4051      C4058   1.521       .  S
C4052      C4053   1.401       .  A
C4052      H4057   1.083       .  S
C4053      C4054   1.422       .  A
C4054      C4055   1.527       .  S
C4055      F4059   1.381       .  S
C4055      F4060   1.383       .  S
C4055      F4061   1.371   1_455  S
C4058      F4062   1.382       .  S
C4058      F4063   1.383       .  S
C4058      F4064   1.384       .  S
C4065      C4066   1.405       .  A
C4065      C4070   1.391       .  A
C4065      H4072   1.084       .  S
C4066      C4067   1.419       .  A
C4067      C4068   1.390       .  A
C4067      C4074   1.516       .  S
C4068      C4069   1.387       .  A
C4068      H4073   1.084       .  S
C4069      C4070   1.397       .  A
C4070      C4071   1.504       .  S
C4071      F4075   1.384       .  S
C4071      F4076   1.381       .  S
C4071      F4077   1.384       .  S
C4074      F4078   1.384       .  S
C4074      F4079   1.377       .  S
C4074      F4080   1.375       .  S
C4081      C4082   1.412       .  A
C4081      C4086   1.403       .  A
C4081      H4088   1.081       .  S
C4082      C4083   1.428       .  A
C4083      C4084   1.399       .  A
C4083      C4090   1.523       .  S
C4084      C4085   1.393       .  A
C4084      H4089   1.083       .  S
C4085      C4086   1.405       .  A
C4086      C4087   1.517       .  S
C4087      F4091   1.384       .  S
C4087      F4092   1.381       .  S
C4087      F4093   1.383       .  S
C4090      F4094   1.376       .  S
C4090      F4095   1.384       .  S
C4090      F4096   1.377       .  S
C4097      C4098   1.412       .  A
C4097      C4102   1.415       .  A
C4097      H4104   1.082       .  S
C4098      C4099   1.397       .  A
C4099      C4100   1.387       .  A
C4099      C4106   1.518       .  S
C4100      C4101   1.402       .  A
C4100      H4105   1.066       .  S
C4101      C4102   1.406       .  A
C4102      C4103   1.516       .  S
C4103      F4107   1.365       .  S
C4103      F4108   1.383       .  S
C4103      F4109   1.383       .  S
C4106      F4110   1.384   1_545  S
C4106      F4111   1.384   1_545  S
C4106      F4112   1.380       .  S
C4113      C4114   1.408   1_565  A
C4113      C4118   1.429       .  A
C4114      C4115   1.418       .  A
C4115      C4116   1.427       .  A
C4115      C4122   1.516       .  S
C4116      C4117   1.409   1_545  A
C4116      H4121   1.082       .  S
C4117      C4118   1.423       .  A
C4119      F4123   1.384       .  S
C4119      F4124   1.382       .  S
C4122      F4126   1.383       .  S
C4122      F4127   1.384       .  S
C4122      F4128   1.384       .  S
C4129      C4130   1.414       .  A
C4129      C4134   1.427       .  A
C4129      H4136   1.081       .  S
C4130      C4131   1.423       .  A
C4131      C4132   1.433       .  A
C4131      C4138   1.514       .  S
C4132      C4133   1.413       .  A
C4132      H4137   1.080       .  S
C4133      C4134   1.420       .  A
C4134      C4135   1.515       .  S
C4135      F4139   1.383       .  S
C4135      F4140   1.383       .  S
C4135      F4141   1.381       .  S
C4138      F4142   1.383       .  S
C4138      F4143   1.383       .  S
C4138      F4144   1.384       .  S
C4145      C4150   1.394       .  A
C4145      H4152   1.078       .  S
C4146      C4147   1.418       .  A
C4147      C4148   1.404       .  A
C4147      C4154   1.531       .  S
C4148      H4153   1.081       .  S
C4149      C4150   1.404       .  A
C4150      C4151   1.518       .  S
C4151      F4155   1.385       .  S
C4151      F4156   1.381       .  S
C4151      F4157   1.383       .  S
C4154      F4158   1.382       .  S
C4154      F4159   1.378       .  S
C4154      F4160   1.383       .  S
C4161      C4162   1.406       .  A
C4161      C4166   1.389       .  A
C4161      H4168   1.050       .  S
C4162      C4163   1.410       .  A
C4163      C4164   1.422       .  A
C4163      C4170   1.515       .  S
C4164      C4165   1.418       .  A
C4164      H4169   1.081       .  S
C4165      C4166   1.385       .  A
C4167      F4171   1.379       .  S
C4167      F4172   1.383       .  S
C4167      F4173   1.384       .  S
C4170      F4174   1.383       .  S
C4170      F4175   1.382       .  S
C4170      F4176   1.384       .  S
C4177      C4178   1.410       .  A
C4177      C4182   1.397       .  A
C4177      H4184   1.083       .  S
C4178      C4179   1.423       .  A
C4179      C4180   1.396       .  A
C4179      C4186   1.518       .  S
C4180      C4181   1.391       .  A
C4180      H4185   1.084       .  S
C4181      C4182   1.402       .  A
C4182      C4183   1.504       .  S
C4183      F4187   1.383       .  S
C4183      F4188   1.382       .  S
C4183      F4189   1.385       .  S
C4186      F4190   1.386       .  S
C4186      F4191   1.374       .  S
C4186      F4192   1.359       .  S
