geometry optimzed in LAMMPS
_audit_creation_date              2020-11-30 
_audit_creation_method            'lammps2cif' 
_symmetry_space_group_name_H-M    'P1' 
_symmetry_Int_Tables_number       1 
_symmetry_cell_setting            triclinic 
loop_ 
_symmetry_equiv_pos_as_xyz 
  x,y,z 
_cell_length_a                    41.43631695 
_cell_length_b                    36.12575579776978 
_cell_length_c                    35.249085928287606 
_cell_angle_alpha                 89.98669112844084 
_cell_angle_beta                  89.7630451266579 
_cell_angle_gamma                 90.04315626485892 
loop_ 
_atom_site_label 
_atom_site_type_symbol 
_atom_site_fract_x 
_atom_site_fract_y 
_atom_site_fract_z 
_atom_site_charge 
C1          C  0.66432900  0.08549676  0.82454856     0.02600
C2          C  0.66106197  0.04679428  0.82961441     0.02500
C3          C  0.68289631  0.02816177  0.85355611    -0.18000
C4          C  0.70853989  0.04757055  0.87061173     0.02600
C5          C  0.71207533  0.08589710  0.86369757     0.02500
C6          C  0.68994862  0.10441011  0.84103220    -0.18000
H7          H  0.69260899  0.13394569  0.83634537     0.04600
H8          H  0.68037356  0.99865077  0.85818951     0.04600
O9          O  0.52247908  0.24926275  0.63307253    -0.80600
O10         O  0.41886092  0.27408334  0.50465555    -0.65300
O11         O  0.46390932  0.25861900  0.59624213    -1.11900
C12         C  0.45098089  0.13075565  0.57222902     1.06300
O13         O  0.38876723  0.22296567  0.50239225    -0.78500
O14         O  0.38781840  0.20366839  0.57630231    -0.66100
Ni15       Ni  0.50285342  0.28670532  0.60238190     1.34900
C16         C  0.39772921  0.20427751  0.61034003     0.85000
O17         O  0.43699581  0.31821445  0.56000226    -0.79000
O18         O  0.48815691  0.32963997  0.57416444    -0.89300
C19         C  0.39511954  0.25595988  0.49219525     0.84600
O20         O  0.52139283  0.26494682  0.55865470    -0.67500
O21         O  0.42368319  0.14121055  0.55976919    -0.86800
C22         C  0.50973214  0.26618908  0.52554126     0.85400
C23         C  0.45987944  0.34072019  0.56616228     1.07000
H24         H  0.46220163  0.20917992  0.52214323     0.38800
O25         O  0.44698555  0.21400927  0.54236674    -1.09500
O26         O  0.42758375  0.20024561  0.61893957    -0.66100
Ni27       Ni  0.46787665  0.20612711  0.58997648     1.26300
O28         O  0.48034465  0.27447509  0.51919327    -0.66300
O29         O  0.47265773  0.15373869  0.58188444    -0.78600
C30         C  0.51466859  0.21844046  0.64771286     0.84800
O31         O  0.49014821  0.20020341  0.63674743    -0.65800
Ni32       Ni  0.40894171  0.18493067  0.53265307     1.27400
Ni33       Ni  0.44186242  0.26653396  0.55000908     1.26100
H34         H  0.44971912  0.26441818  0.61711670     0.39300
O35         O  0.38119961  0.47011625  0.62114415    -0.80600
O36         O  0.50267479  0.44944278  0.51285769    -0.65300
O37         O  0.44458674  0.46223954  0.59523030    -1.11900
C38         C  0.45781756  0.09037687  0.57381793     1.06300
O39         O  0.53398965  0.49853224  0.52245199    -0.78500
O40         O  0.51876504  0.01518351  0.58985070    -0.66100
Ni41       Ni  0.40541747  0.43384294  0.59328235     1.34900
C42         C  0.50405058  0.01544979  0.62152990     0.85000
O43         O  0.47682568  0.40348901  0.56321733    -0.79000
O44         O  0.42435325  0.39181392  0.56727351    -0.89300
C45         C  0.52903039  0.46657199  0.50840860     0.84600
O46         O  0.39319448  0.45631781  0.54689036    -0.67500
O47         O  0.48674978  0.07941713  0.56924080    -0.86800
C48         C  0.40935550  0.45487698  0.51629570     0.85400
C49         C  0.45344185  0.38086628  0.56521370     1.07000
H50         H  0.45357748  0.01282634  0.52182853     0.38800
O51         O  0.46553306  0.00771325  0.54470949    -1.09500
O52         O  0.47356516  0.02103413  0.62408869    -0.66100
Ni53       Ni  0.43816526  0.01533849  0.58765720     1.26300
O54         O  0.43963757  0.44836923  0.51568389    -0.66300
O55         O  0.43472373  0.06765821  0.57844134    -0.78600
C56         C  0.38381888  0.00320534  0.63548440     0.84800
O57         O  0.40975695  0.02109859  0.62958970    -0.65800
Ni58       Ni  0.50469412  0.03632093  0.54356003     1.27400
Ni59       Ni  0.47318152  0.45546497  0.55357822     1.26100
H60         H  0.45573080  0.45611020  0.61834513     0.39300
C61         C  0.21307164  0.13608727  0.78400223     0.02600
C62         C  0.21447809  0.17499806  0.78807077     0.02500
C63         C  0.19070474  0.19291573  0.80984723    -0.18000
C64         C  0.16599662  0.17231087  0.82745886     0.02600
C65         C  0.16389784  0.13361992  0.82117845     0.02500
C66         C  0.18751430  0.11608169  0.79952792    -0.18000
H67         H  0.18664213  0.08627917  0.79581629     0.04600
H68         H  0.19217187  0.22253717  0.81435455     0.04600
O69         O  0.88014457  0.25035853  0.01634751    -0.80600
O70         O  0.99605262  0.27958686  0.13066678    -0.65300
O71         O  0.94149448  0.26002855  0.04694673    -1.11900
C72         C  0.95747668  0.13436152  0.07529360     1.06300
O73         O  0.02698318  0.22902197  0.12830213    -0.78500
O74         O  0.01785668  0.20931244  0.05549999    -0.66100
Ni75       Ni  0.90219877  0.28829586  0.04484199     1.34900
C76         C  0.00257208  0.20825255  0.02443065     0.85000
O77         O  0.97141137  0.32160377  0.07672763    -0.79000
O78         O  0.91895291  0.33186168  0.07135862    -0.89300
C79         C  0.02137230  0.26196581  0.13928991     0.84600
O80         O  0.88829666  0.26566316  0.09047325    -0.67500
O81         O  0.98637280  0.14567566  0.07911963    -0.86800
C82         C  0.90322204  0.26667221  0.12176803     0.85400
C83         C  0.94778765  0.34374459  0.07440343     1.07000
H84         H  0.95298728  0.21397064  0.12349668     0.38800
O85         O  0.96485708  0.21822591  0.10025385    -1.09500
O86         O  0.97278367  0.19936523  0.02260390    -0.66100
Ni87       Ni  0.93770020  0.20803950  0.05827778     1.26300
O88         O  0.93245724  0.27775164  0.12441105    -0.66300
O89         O  0.93414410  0.15670531  0.07125945    -0.78600
C90         C  0.88539949  0.21693148  0.00666395     0.84800
O91         O  0.90977010  0.19863484  0.01724437    -0.65800
Ni92       Ni  0.00404266  0.18998142  0.10269587     1.27400
Ni93       Ni  0.96828471  0.27019524  0.08928881     1.26100
H94         H  0.95349136  0.26414965  0.02376645     0.39300
O95         O  0.01047060  0.47656948  0.99953136    -0.80600
O96         O  0.92402509  0.44983430  0.14689790    -0.65300
O97         O  0.95761690  0.46822518  0.04812362    -1.11900
C98         C  0.95092008  0.09408522  0.07640764     1.06300
O99         O  0.89792103  0.50287432  0.15709378    -0.78500
O100        O  0.88731722  0.01934333  0.07744017    -0.66100
Ni101      Ni  0.99384272  0.43862078  0.03266504     1.34900
C102        C  0.89528286  0.02181782  0.04265277     0.85000
O103        O  0.93318678  0.40697078  0.08615700    -0.79000
O104        O  0.98153085  0.39512967  0.06175367    -0.89300
C105        C  0.90454398  0.46954880  0.16597459     0.84600
O106        O  0.01896171  0.45744434  0.07318906    -0.67500
O107        O  0.92304809  0.08307056  0.08646451    -0.86800
C108        C  0.01189983  0.45551356  0.10819140     0.85400
C109        C  0.95429007  0.38418694  0.07421627     1.07000
H110        H  0.96369795  0.01418718  0.12433730     0.38800
O111        O  0.94738665  0.01063973  0.10516845    -1.09500
O112        O  0.92413159  0.02958043  0.03227733    -0.66100
Ni113      Ni  0.96547217  0.01984043  0.05655179     1.26300
O114        O  0.98347175  0.44754121  0.11990431    -0.66300
O115        O  0.97295737  0.07120897  0.06771480    -0.78600
C116        C  0.00562337  0.00836655  0.99173081     0.84800
O117        O  0.98466675  0.02811186  0.00839435    -0.65800
Ni118      Ni  0.91097170  0.04095114  0.11776692     1.27400
Ni119      Ni  0.94140717  0.45833486  0.09770762     1.26100
H120        H  0.94053550  0.46493122  0.02985455     0.39300
C121        C  0.24555172  0.39170249  0.31847843     0.02600
C122        C  0.24592554  0.43079314  0.31893330     0.02500
C123        C  0.22356269  0.45051453  0.29688464    -0.18000
C124        C  0.19991294  0.43137289  0.27608407     0.02600
C125        C  0.19927909  0.39222416  0.27714617     0.02500
C126        C  0.22233181  0.37286712  0.29767383    -0.18000
H127        H  0.22159701  0.34284818  0.29838781     0.04600
H128        H  0.22395634  0.48050388  0.29677845     0.04600
C129        C  0.70516380  0.33014809  0.37038217     0.02600
C130        C  0.70013289  0.29171874  0.36556167     0.02500
C131        C  0.72228763  0.27095562  0.34427814    -0.18000
C132        C  0.74892178  0.28826193  0.32721116     0.02600
C133        C  0.75432037  0.32658359  0.33300437     0.02500
C134        C  0.73242826  0.34696528  0.35477277    -0.18000
H135        H  0.73571016  0.37659971  0.35789952     0.04600
H136        H  0.71827998  0.24158510  0.34006988     0.04600
C137        C  0.87846788  0.40380870  0.24534797    -0.22200
C138        C  0.84728078  0.41695703  0.25254853     0.09800
C139        C  0.83788985  0.45138344  0.23746621     0.10200
C140        C  0.85791447  0.46886163  0.21074922    -0.17100
C141        C  0.88727683  0.45277227  0.19892608    -0.27500
C142        C  0.89838847  0.42059445  0.21801951     0.18500
C143        C  0.82395941  0.39272146  0.27277381     0.12500
C144        C  0.80679172  0.46956211  0.24961002    -0.11900
H145        H  0.84974102  0.49438548  0.19783257     0.12800
C146        C  0.93086304  0.40335984  0.20991723    -0.22700
H147        H  0.88667111  0.37919916  0.25981986     0.08400
C148        C  0.79780841  0.37587466  0.25351396     0.04700
C149        C  0.77587627  0.35413200  0.27393912    -0.19900
C150        C  0.77996817  0.34736794  0.31270877    -0.12200
C151        C  0.80646271  0.36331924  0.33184529     0.13500
C152        C  0.82835265  0.38560344  0.31152347    -0.22700
C153        C  0.79253926  0.37941179  0.21133999    -0.05700
H154        H  0.75511498  0.34267747  0.25947596     0.15000
C155        C  0.81136828  0.35738198  0.37371568    -0.15900
H156        H  0.84864911  0.39809494  0.32600404     0.09300
H157        H  0.93139306  0.39161053  0.18084145     0.07200
H158        H  0.93620828  0.38027603  0.22974373     0.08400
H159        H  0.95019368  0.42442435  0.21309649     0.07400
H160        H  0.80685154  0.47351226  0.28085369     0.02300
H161        H  0.78581754  0.45218021  0.24174284     0.02800
H162        H  0.80369036  0.49710388  0.23611370     0.06300
H163        H  0.76890320  0.39287113  0.20600729     0.05300
H164        H  0.79231525  0.35141783  0.19835198    -0.00500
H165        H  0.81156640  0.39563852  0.19675854     0.01000
H166        H  0.83372230  0.37107294  0.38389903     0.04600
H167        H  0.81328609  0.32740539  0.37990093     0.06600
H168        H  0.79071807  0.36902845  0.38987886     0.07400
C169        C  0.12162803  0.47619766  0.24571272    -0.22200
C170        C  0.12175749  0.46673836  0.20709365     0.09800
C171        C  0.15041254  0.45274765  0.19046210     0.10200
C172        C  0.17730313  0.44631298  0.21344376    -0.17100
C173        C  0.17579828  0.45140137  0.25283485    -0.27500
C174        C  0.14817520  0.46825518  0.26899553     0.18500
C175        C  0.09090552  0.46740379  0.18583671     0.12500
C176        C  0.15299210  0.44166387  0.14929820    -0.11900
H177        H  0.19867494  0.43382796  0.20102904     0.12800
C178        C  0.14511732  0.47645656  0.31075421    -0.22700
H179        H  0.09987877  0.48760882  0.25827675     0.08400
C180        C  0.06718066  0.43983718  0.19175303     0.04700
C181        C  0.04103858  0.43714768  0.16669595    -0.19900
C182        C  0.03801694  0.46160112  0.13600668    -0.12200
C183        C  0.06052543  0.49092757  0.13182193     0.13500
C184        C  0.08665664  0.49350179  0.15692458    -0.22700
C185        C  0.07005182  0.41257544  0.22381538    -0.05700
H186        H  0.02349566  0.41513267  0.17033862     0.15000
C187        C  0.05698222  0.51984883  0.10124704    -0.15900
H188        H  0.10465154  0.51497844  0.15302890     0.09300
H189        H  0.12402925  0.46140830  0.32266474     0.07200
H190        H  0.14131528  0.50662062  0.31480861     0.08400
H191        H  0.16667627  0.46832883  0.32718755     0.07400
H192        H  0.13043729  0.44579421  0.13317824     0.02300
H193        H  0.17233680  0.45810725  0.13535209     0.02800
H194        H  0.15929164  0.41184414  0.14737205     0.06300
H195        H  0.05077459  0.39121437  0.22298277     0.05300
H196        H  0.06836962  0.42722547  0.25140438    -0.00500
H197        H  0.09372168  0.39860088  0.22189983     0.01000
H198        H  0.07529814  0.54213374  0.10404243     0.04600
H199        H  0.03273190  0.53279751  0.10320761     0.06600
H200        H  0.06021995  0.50720339  0.07281896     0.07400
C201        C  0.82177283  0.24281772  0.28274214    -0.22200
C202        C  0.81401658  0.24731350  0.24432043     0.09800
C203        C  0.78230377  0.25733890  0.23401026     0.10200
C204        C  0.75999495  0.26613453  0.26254266    -0.17100
C205        C  0.76936636  0.26706738  0.30066405    -0.27500
C206        C  0.79993352  0.25335785  0.31118664     0.18500
C207        C  0.84055643  0.24897664  0.21623804     0.12500
C208        C  0.77273986  0.26170522  0.19304947    -0.11900
H209        H  0.73616000  0.27592642  0.25488760     0.12800
C210        C  0.81074252  0.25124545  0.35182922    -0.22700
H211        H  0.84604231  0.23463060  0.29048031     0.08400
C212        C  0.86168766  0.27971883  0.21507921     0.04700
C213        C  0.88403533  0.28297412  0.18547928    -0.19900
C214        C  0.88495857  0.25702586  0.15619455    -0.12200
C215        C  0.86520993  0.22501923  0.15836427     0.13500
C216        C  0.84315467  0.22144004  0.18845154    -0.22700
C217        C  0.85984408  0.31127136  0.24267484    -0.05700
H218        H  0.89913765  0.30748653  0.18377744     0.15000
C219        C  0.86691657  0.19412840  0.12968829    -0.15900
H220        H  0.82731007  0.19756563  0.18968243     0.09300
H221        H  0.83247279  0.26880679  0.35573334     0.07200
H222        H  0.81705018  0.22218722  0.35885088     0.08400
H223        H  0.79184284  0.26043883  0.37209052     0.07400
H224        H  0.77531292  0.23484104  0.17809452     0.02300
H225        H  0.78837644  0.28267154  0.17907691     0.02800
H226        H  0.74728075  0.27087533  0.19021268     0.06300
H227        H  0.88325362  0.31392476  0.25762318     0.05300
H228        H  0.84054658  0.30863930  0.26422402    -0.00500
H229        H  0.85485882  0.33676016  0.22629438     0.01000
H230        H  0.87189188  0.16760027  0.14447030     0.04600
H231        H  0.88635919  0.19816670  0.10843766     0.06600
H232        H  0.84350740  0.19180796  0.11465612     0.07400
C233        C  0.12057605  0.34206838  0.25916446    -0.22200
C234        C  0.12538445  0.32972372  0.22188914     0.09800
C235        C  0.15501866  0.33676720  0.20330104     0.10200
C236        C  0.17894652  0.35683940  0.22227130    -0.17100
C237        C  0.17351613  0.37058281  0.25888668    -0.27500
C238        C  0.14428373  0.36257377  0.27792523     0.18500
C239        C  0.09817156  0.31202046  0.20196630     0.12500
C240        C  0.16152447  0.32287322  0.16369659    -0.11900
H241        H  0.20179663  0.36244036  0.20831530     0.12800
C242        C  0.13725802  0.37531060  0.31782126    -0.22700
H243        H  0.09768506  0.33683884  0.27319846     0.08400
C244        C  0.08720180  0.27621953  0.21147718     0.04700
C245        C  0.06155102  0.26077183  0.19103310    -0.19900
C246        C  0.04622553  0.28071827  0.16205765    -0.12200
C247        C  0.05688682  0.31695256  0.15315308     0.13500
C248        C  0.08286976  0.33197157  0.17313012    -0.22700
C249        C  0.10299849  0.25401401  0.24244725    -0.05700
H250        H  0.05344035  0.23295137  0.19759834     0.15000
C251        C  0.04198801  0.33946201  0.12171993    -0.15900
H252        H  0.09153671  0.35943059  0.16600716     0.09300
H253        H  0.13289997  0.35084746  0.33621847     0.07200
H254        H  0.11527653  0.39285472  0.31787893     0.08400
H255        H  0.15721451  0.39156701  0.33041551     0.07400
H256        H  0.14453455  0.33577170  0.14338799     0.02300
H257        H  0.15860334  0.29233175  0.16286833     0.02800
H258        H  0.18641425  0.32966139  0.15415007     0.06300
H259        H  0.09211437  0.22602821  0.24518281     0.05300
H260        H  0.10008931  0.26830973  0.27009718    -0.00500
H261        H  0.12909676  0.25065311  0.23609397     0.01000
H262        H  0.05472507  0.36622165  0.11743537     0.04600
H263        H  0.01650829  0.34592901  0.12884417     0.06600
H264        H  0.04316070  0.32386083  0.09461287     0.07400
C265        C  0.11880904  0.19154527  0.91687806    -0.22200
C266        C  0.09223542  0.21058465  0.90218661     0.09800
C267        C  0.09296613  0.22327517  0.86434758     0.10200
C268        C  0.11892423  0.21295959  0.84081419    -0.17100
C269        C  0.14385814  0.19047503  0.85468448    -0.27500
C270        C  0.14481796  0.18167249  0.89373715     0.15300
C271        C  0.06432214  0.21620341  0.92772896     0.12500
C272        C  0.06627030  0.24703943  0.84886107    -0.11900
H273        H  0.11881024  0.22054154  0.81106296     0.12800
C274        C  0.17268961  0.16158911  0.91181053    -0.22700
H275        H  0.11884693  0.18342358  0.94650971     0.08400
C276        C  0.03689934  0.19279066  0.92681004     0.04700
C277        C  0.01546312  0.19283470  0.95767003    -0.19900
C278        C  0.02087085  0.21556904  0.98924860    -0.12200
C279        C  0.04614631  0.24199789  0.98798491     0.13500
C280        C  0.06795418  0.24134076  0.95760419    -0.22700
C281        C  0.03029441  0.16613155  0.89488985    -0.05700
H282        H  0.99566250  0.17318415  0.95811756     0.15000
C283        C  0.05090637  0.27127966  0.01799334    -0.15900
H284        H  0.08861836  0.25979172  0.95781333     0.09300
H285        H  0.16404715  0.13529448  0.92461714     0.07200
H286        H  0.18303817  0.17910054  0.93460993     0.08400
H287        H  0.19237413  0.15521259  0.89144945     0.07400
H288        H  0.06428565  0.27276287  0.86594253     0.02300
H289        H  0.04297355  0.23195315  0.85011778     0.02800
H290        H  0.07088981  0.25495710  0.81887768     0.06300
H291        H  0.02844692  0.13750098  0.90612307     0.05300
H292        H  0.04929870  0.16648139  0.87280048    -0.00500
H293        H  0.00701568  0.17340241  0.88131899     0.01000
H294        H  0.07376318  0.26605479  0.03342199     0.04600
H295        H  0.03073148  0.27273593  0.03865870     0.06600
H296        H  0.05235750  0.29890384  0.00425656     0.07400
C297        C  0.05400447  0.02243791  0.90144460    -0.22200
C298        C  0.07094792  0.05466129  0.91091049     0.09800
C299        C  0.06461500  0.07280596  0.94557048     0.10200
C300        C  0.04134948  0.05818765  0.97020035    -0.17100
C301        C  0.02510357  0.02524599  0.96147270    -0.27500
C302        C  0.02695956  0.51030374  0.92419799     0.18500
C303        C  0.09471440  0.06994674  0.88396202     0.12500
C304        C  0.08292762  0.10710777  0.95694391    -0.11900
H305        H  0.03698434  0.07152315  0.99730481     0.12800
C306        C  0.00966506  0.47566182  0.91184109    -0.22700
H307        H  0.05419856  0.51284235  0.87199932     0.08400
C308        C  0.12796858  0.06319319  0.88821149     0.04700
C309        C  0.14994737  0.08369772  0.86645650    -0.19900
C310        C  0.13927260  0.11011319  0.84008626    -0.12200
C311        C  0.10585522  0.11360236  0.83287796     0.13500
C312        C  0.08391577  0.09399238  0.85558169    -0.22700
C313        C  0.14014647  0.03454604  0.91573014    -0.05700
H314        H  0.17562402  0.07997916  0.87085166     0.15000
C315        C  0.09264210  0.13670555  0.80094774    -0.15900
H316        H  0.05821609  0.09783373  0.85149475     0.09300
H317        H  0.02745275  0.45308113  0.90740998     0.07200
H318        H  0.99698829  0.48100820  0.88469346     0.08400
H319        H  0.99129464  0.46617830  0.93259862     0.07400
H320        H  0.08008597  0.12873945  0.93500921     0.02300
H321        H  0.10897252  0.10072561  0.95984551     0.02800
H322        H  0.07419558  0.11848192  0.98439550     0.06300
H323        H  0.16689952  0.03264857  0.91523489     0.05300
H324        H  0.13021335  0.00700388  0.90805114    -0.00500
H325        H  0.13248297  0.04149008  0.94505252     0.01000
H326        H  0.07860046  0.11872005  0.78151935     0.04600
H327        H  0.11182680  0.15030398  0.78394334     0.06600
H328        H  0.07631429  0.15832820  0.81239651     0.07400
C329        C  0.58785771  0.39441009  0.47083220    -0.22200
C330        C  0.60782608  0.41592510  0.44756112     0.09800
C331        C  0.60184036  0.45426215  0.44391796     0.10200
C332        C  0.57576585  0.47001840  0.46375792    -0.17100
C333        C  0.55542951  0.44833506  0.48685789    -0.27500
C334        C  0.56181574  0.40993086  0.49054207     0.18500
C335        C  0.63443596  0.39688678  0.42740939     0.12500
C336        C  0.62278847  0.47934944  0.42010839    -0.11900
H337        H  0.57129451  0.49947707  0.46112748     0.12800
C338        C  0.54232113  0.38513900  0.51632979    -0.22700
H339        H  0.59296850  0.36515366  0.47392199     0.08400
C340        C  0.66191043  0.38402288  0.44695726     0.04700
C341        C  0.68511194  0.36314837  0.42736193    -0.19900
C342        C  0.68086705  0.35397156  0.38908567    -0.12200
C343        C  0.65362468  0.36733989  0.36935321     0.13500
C344        C  0.63079209  0.38884080  0.38877830    -0.22700
C345        C  0.66665360  0.39219547  0.48846612    -0.05700
H346        H  0.70624321  0.35306852  0.44214878     0.15000
C347        C  0.64781578  0.35931435  0.32798580    -0.15900
H348        H  0.60953312  0.39856613  0.37397173     0.09300
H349        H  0.55238399  0.35667282  0.51764685     0.07200
H350        H  0.51725662  0.38275959  0.50568223     0.08400
H351        H  0.54231566  0.39648733  0.54559805     0.07400
H352        H  0.60794546  0.49251435  0.39769725     0.02300
H353        H  0.64303802  0.46456823  0.40616096     0.02800
H354        H  0.63324574  0.50133788  0.43832591     0.06300
H355        H  0.68983850  0.38084558  0.49903904     0.05300
H356        H  0.64689744  0.37954857  0.50541058    -0.00500
H357        H  0.66674471  0.42259666  0.49307638     0.01000
H358        H  0.62452893  0.34443965  0.32485968     0.04600
H359        H  0.64653598  0.38576489  0.31203051     0.06600
H360        H  0.66702487  0.34219855  0.31485923     0.07400
C361        C  0.36856757  0.43735857  0.42182610    -0.22200
C362        C  0.34764783  0.46783388  0.42021171     0.09800
C363        C  0.35043592  0.49627115  0.44739438     0.10200
C364        C  0.37217353  0.49199940  0.47747505    -0.17100
C365        C  0.39166684  0.46035109  0.48051834    -0.27500
C366        C  0.39086972  0.43337223  0.45138615     0.18500
C367        C  0.32039232  0.46655380  0.39312918     0.12500
C368        C  0.33036862  0.53092980  0.44478454    -0.11900
H369        H  0.37335201  0.51302063  0.49938590     0.12800
C370        C  0.41171796  0.39917632  0.45116724    -0.22700
H371        H  0.36630675  0.41548062  0.40092260     0.08400
C372        C  0.32509956  0.46812361  0.35347461     0.04700
C373        C  0.29908602  0.46028006  0.32931945    -0.19900
C374        C  0.26882627  0.45031474  0.34407321    -0.12200
C375        C  0.26352122  0.45171384  0.38368743     0.13500
C376        C  0.28943363  0.45961817  0.40770834    -0.22700
C377        C  0.35762473  0.47722590  0.33671154    -0.05700
H378        H  0.30292362  0.45938883  0.29890300     0.15000
C379        C  0.23117956  0.44351776  0.40155339    -0.15900
H380        H  0.28579421  0.45854850  0.43817888     0.09300
H381        H  0.42812967  0.40006947  0.42621271     0.07200
H382        H  0.39628159  0.37427950  0.44866044     0.08400
H383        H  0.42651612  0.39580037  0.47694128     0.07400
H384        H  0.30435416  0.52415294  0.44743941     0.02300
H385        H  0.33480184  0.54459211  0.41702132     0.02800
H386        H  0.33649325  0.55094516  0.46756769     0.06300
H387        H  0.35683946  0.47812648  0.30523244     0.05300
H388        H  0.37557894  0.45599213  0.34500054    -0.00500
H389        H  0.36566048  0.50473545  0.34707626     0.01000
H390        H  0.23333827  0.41946792  0.42099143     0.04600
H391        H  0.21224717  0.43728657  0.38034961     0.06600
H392        H  0.22310966  0.46791669  0.41821578     0.07400
C393        C  0.28829796  0.07932408  0.76611478    -0.22200
C394        C  0.28605199  0.07371564  0.72695934     0.09800
C395        C  0.25931694  0.08752490  0.70673711     0.10200
C396        C  0.23613946  0.10861099  0.72597030    -0.17100
C397        C  0.23875855  0.11494253  0.76499080    -0.27500
C398        C  0.26459763  0.09929955  0.78562272     0.18500
C399        C  0.31249199  0.05448220  0.70717367     0.12500
C400        C  0.25540302  0.08018338  0.66491122    -0.11900
H401        H  0.21573684  0.11990948  0.71069252     0.12800
C402        C  0.26789183  0.10309122  0.82804757    -0.22700
H403        H  0.30868571  0.06808297  0.78147774     0.08400
C404        C  0.34129116  0.07304818  0.69779440     0.04700
C405        C  0.36427069  0.05520143  0.67523902    -0.19900
C406        C  0.35916445  0.01909241  0.66156155    -0.12200
C407        C  0.33497485  0.49448284  0.67778229     0.13500
C408        C  0.30763576  0.01808529  0.69525232    -0.22700
C409        C  0.34761294  0.11188646  0.71117325    -0.05700
H410        H  0.38610173  0.07005855  0.66771324     0.15000
C411        C  0.32922240  0.45465351  0.66678230    -0.15900
H412        H  0.29066607  0.49642422  0.71034734     0.09300
H413        H  0.29130417  0.11647713  0.83480948     0.07200
H414        H  0.26737510  0.07520906  0.84128066     0.08400
H415        H  0.24839538  0.11983781  0.84111610     0.07400
H416        H  0.25269515  0.05000907  0.65996195     0.02300
H417        H  0.27690454  0.09028591  0.64913979     0.02800
H418        H  0.23374899  0.09422384  0.65329748     0.06300
H419        H  0.37053340  0.12323070  0.69955378     0.05300
H420        H  0.34929819  0.11190362  0.74251981    -0.00500
H421        H  0.32767660  0.13026501  0.70224539     0.01000
H422        H  0.30750969  0.44297092  0.68100112     0.04600
H423        H  0.35017232  0.43743871  0.67527971     0.06600
H424        H  0.32518040  0.45250650  0.63575797     0.07400
C425        C  0.57632736  0.22494096  0.46592708    -0.22200
C426        C  0.58294287  0.25454712  0.44149236     0.09800
C427        C  0.56206257  0.28541582  0.44058677     0.10200
C428        C  0.53652646  0.28746272  0.46672406    -0.17100
C429        C  0.53182400  0.25939398  0.49363670    -0.27500
C430        C  0.55096072  0.22703744  0.49221807     0.18500
C431        C  0.61466959  0.25609860  0.42240496     0.12500
C432        C  0.56783754  0.31694527  0.41338321    -0.11900
H433        H  0.52148731  0.31199428  0.46769496     0.12800
C434        C  0.54495991  0.19495122  0.51872246    -0.22700
H435        H  0.59231583  0.20120217  0.46601749     0.08400
C436        C  0.64231486  0.26662381  0.44303395     0.04700
C437        C  0.67098213  0.27399386  0.42350165    -0.19900
C438        C  0.67210614  0.27352620  0.38379020    -0.12200
C439        C  0.64491847  0.26108156  0.36315020     0.13500
C440        C  0.61657510  0.25188211  0.38295326    -0.22700
C441        C  0.64103227  0.27276486  0.48533968    -0.05700
H442        H  0.69204239  0.28307552  0.43910844     0.15000
C443        C  0.64419594  0.25905543  0.32046584    -0.15900
H444        H  0.59522062  0.24372829  0.36735447     0.09300
H445        H  0.54902789  0.20342403  0.54856296     0.07200
H446        H  0.56134154  0.17137050  0.51254786     0.08400
H447        H  0.51974871  0.18505671  0.51552014     0.07400
H448        H  0.56556120  0.30688160  0.38377395     0.02300
H449        H  0.59247078  0.32825413  0.41739554     0.02800
H450        H  0.55022977  0.33974901  0.41764183     0.06300
H451        H  0.66460641  0.28231053  0.49661966     0.05300
H452        H  0.63458790  0.24657647  0.49997529    -0.00500
H453        H  0.62274845  0.29425151  0.49216591     0.01000
H454        H  0.63969635  0.23002681  0.31159126     0.04600
H455        H  0.62435521  0.27668899  0.30957760     0.06600
H456        H  0.66689184  0.26846820  0.30691685     0.07400
C457        C  0.34025646  0.32745772  0.44794654    -0.22200
C458        C  0.33070604  0.30925035  0.41488723     0.09800
C459        C  0.34222315  0.27331194  0.40698398     0.10200
C460        C  0.36336269  0.25632438  0.43265387    -0.17100
C461        C  0.37321533  0.27474506  0.46567981    -0.27500
C462        C  0.36108279  0.31055225  0.47372918     0.18500
C463        C  0.30826461  0.32860263  0.38939997     0.12500
C464        C  0.33175774  0.25276093  0.37194791    -0.11900
H465        H  0.37238252  0.22873032  0.42686558     0.12800
C466        C  0.36906474  0.33074688  0.50994886    -0.22700
H467        H  0.33118032  0.35507444  0.45362449     0.08400
C468        C  0.27569918  0.33420670  0.39973731     0.04700
C469        C  0.25578259  0.35464659  0.37565733    -0.19900
C470        C  0.26778540  0.36963830  0.34179174    -0.12200
C471        C  0.30005852  0.36292284  0.33076286     0.13500
C472        C  0.32011123  0.34290807  0.35512306    -0.22700
C473        C  0.26187401  0.31834326  0.43586910    -0.05700
H474        H  0.23074393  0.35926808  0.38334144     0.15000
C475        C  0.31385415  0.37573993  0.29338964    -0.15900
H476        H  0.34516100  0.33843444  0.34737658     0.09300
H477        H  0.35542672  0.35709155  0.51261642     0.07200
H478        H  0.39505477  0.33785752  0.51033634     0.08400
H479        H  0.36293534  0.31319493  0.53482367     0.07400
H480        H  0.33960778  0.26801514  0.34618771     0.02300
H481        H  0.30506687  0.25000063  0.37183191     0.02800
H482        H  0.34237007  0.22456346  0.37068549     0.06300
H483        H  0.23570039  0.32439587  0.43876679     0.05300
H484        H  0.27425719  0.33041891  0.46081106    -0.00500
H485        H  0.26504598  0.28782853  0.43602426     0.01000
H486        H  0.33471623  0.39434676  0.29855395     0.04600
H487        H  0.29606605  0.39078224  0.27577455     0.06600
H488        H  0.32228944  0.35137822  0.27691413     0.07400
C489        C  0.34970819  0.23183729  0.69947412    -0.22200
C490        C  0.32029686  0.21355603  0.69287138     0.09800
C491        C  0.31652120  0.19351461  0.65861834     0.10200
C492        C  0.34243095  0.19097078  0.63310585    -0.17100
C493        C  0.37236333  0.20782820  0.64030830    -0.27500
C494        C  0.37599783  0.22860261  0.67413176     0.18500
C495        C  0.29449803  0.21319926  0.72276613     0.12500
C496        C  0.28564270  0.17346228  0.64906751    -0.11900
H497        H  0.33930551  0.17516899  0.60723143     0.12800
C498        C  0.40693673  0.24832625  0.68340455    -0.22700
H499        H  0.35236102  0.24789286  0.72524737     0.08400
C500        C  0.29936376  0.19755327  0.75929618     0.04700
C501        C  0.27258115  0.19077470  0.78276722    -0.19900
C502        C  0.24108549  0.19621375  0.76974225    -0.12200
C503        C  0.23632637  0.21561990  0.73553975     0.13500
C504        C  0.26324574  0.22520082  0.71315567    -0.22700
C505        C  0.33169926  0.18515976  0.77408070    -0.05700
H506        H  0.27614311  0.17766332  0.81003354     0.15000
C507        C  0.20285899  0.22432088  0.72169648    -0.15900
H508        H  0.25960572  0.23965824  0.68659920     0.09300
H509        H  0.40555156  0.26255879  0.71128969     0.07200
H510        H  0.41169123  0.26972665  0.66160991     0.08400
H511        H  0.42722510  0.22834470  0.68475712     0.07400
H512        H  0.26616095  0.19354307  0.64293006     0.02300
H513        H  0.27828774  0.15555057  0.67309184     0.02800
H514        H  0.28838780  0.15571705  0.62353591     0.06300
H515        H  0.33898651  0.20337023  0.79791945     0.05300
H516        H  0.35109442  0.18508587  0.75253628    -0.00500
H517        H  0.32971889  0.15641986  0.78497933     0.01000
H518        H  0.19027051  0.24214889  0.74269346     0.04600
H519        H  0.18897964  0.19828822  0.71789168     0.06600
H520        H  0.20339062  0.23917271  0.69411066     0.07400
C521        C  0.78433724  0.00173036  0.90744406    -0.22200
C522        C  0.78468560  0.01567171  0.94456035     0.09800
C523        C  0.75756044  0.03529960  0.95841053     0.10200
C524        C  0.73082818  0.04024519  0.93480072    -0.17100
C525        C  0.73148563  0.02902135  0.89669493    -0.27500
C526        C  0.75830247  0.00865549  0.88308967     0.18500
C527        C  0.81474343  0.01259222  0.96692978     0.12500
C528        C  0.75680773  0.05394597  0.99671154    -0.11900
H529        H  0.71056132  0.05643791  0.94504314     0.12800
C530        C  0.76123879  0.99581987  0.84261129    -0.22700
H531        H  0.80528411  0.98699940  0.89677309     0.08400
C532        C  0.81660145  0.99016061  0.99954035     0.04700
C533        C  0.84370413  0.99300193  0.02302369    -0.19900
C534        C  0.86958674  0.01670161  0.01392109    -0.12200
C535        C  0.86905409  0.03623314  0.97902236     0.13500
C536        C  0.84131488  0.03434284  0.95633859    -0.22700
C537        C  0.78999970  0.96337514  0.00955205    -0.05700
H538        H  0.84451896  0.97685456  0.04892933     0.15000
C539        C  0.89702976  0.05967666  0.96569049    -0.15900
H540        H  0.83994489  0.05058474  0.93058430     0.09300
H541        H  0.76400649  0.96525780  0.84200102     0.07200
H542        H  0.78281457  0.00869918  0.82926004     0.08400
H543        H  0.74000915  0.00308420  0.82531510     0.07400
H544        H  0.77941139  0.05050250  0.01296802     0.02300
H545        H  0.73661261  0.04249357  0.01387120     0.02800
H546        H  0.75292118  0.08413183  0.99285395     0.06300
H547        H  0.79573594  0.94728581  0.03551473     0.05300
H548        H  0.78656753  0.94354293  0.98584617    -0.00500
H549        H  0.76707348  0.97836804  0.01470774     0.01000
H550        H  0.91853625  0.04190603  0.96106427     0.04600
H551        H  0.90278505  0.08127233  0.98693852     0.06600
H552        H  0.89169175  0.07382669  0.93845197     0.07400
C553        C  0.75895279  0.15008785  0.92803897    -0.22200
C554        C  0.79038047  0.14482064  0.91446497     0.09800
C555        C  0.79613753  0.12112433  0.88343606     0.10200
C556        C  0.76996732  0.10275758  0.86676587    -0.17100
C557        C  0.73849106  0.10755892  0.88080799    -0.27500
C558        C  0.73283744  0.13172755  0.91164672     0.18500
C559        C  0.81680028  0.16257495  0.93542057     0.12500
C560        C  0.82976744  0.11501531  0.86833222    -0.11900
H561        H  0.77403252  0.08419218  0.84307208     0.12800
C562        C  0.69989868  0.13785485  0.92887784    -0.22700
H563        H  0.75489686  0.16808682  0.95221981     0.08400
C564        C  0.82745911  0.19861911  0.92654169     0.04700
C565        C  0.85023869  0.21574221  0.95006933    -0.19900
C566        C  0.86158424  0.19792460  0.98278718    -0.12200
C567        C  0.84957740  0.16236682  0.99248102     0.13500
C568        C  0.82818399  0.14467996  0.96788131    -0.22700
C569        C  0.81413965  0.21922344  0.89291812    -0.05700
H570        H  0.85897418  0.24323337  0.94316194     0.15000
C571        C  0.85645049  0.14344725  0.02980434    -0.15900
H572        H  0.81878703  0.11754239  0.97522261     0.09300
H573        H  0.69340725  0.16758242  0.92659244     0.07200
H574        H  0.70037420  0.12997456  0.95932326     0.08400
H575        H  0.68063866  0.12142409  0.91515648     0.07400
H576        H  0.84544710  0.10394451  0.89108240     0.02300
H577        H  0.84002953  0.14158760  0.85810877     0.02800
H578        H  0.82999108  0.09508598  0.84434158     0.06300
H579        H  0.82484791  0.24730170  0.89026775     0.05300
H580        H  0.78760551  0.22232740  0.89606562    -0.00500
H581        H  0.81941138  0.20377543  0.86642370     0.01000
H582        H  0.83328320  0.13676981  0.04421962     0.04600
H583        H  0.87035590  0.16069479  0.04980361     0.06600
H584        H  0.86973343  0.11729947  0.02482334     0.07400
C585        C  0.53681777  0.99080284  0.72035263    -0.22200
C586        C  0.56697146  0.00865688  0.71921706     0.09800
C587        C  0.57637829  0.02709713  0.68542824     0.10200
C588        C  0.55524879  0.02810687  0.65457021    -0.17100
C589        C  0.52446574  0.01190751  0.65612609    -0.27500
C590        C  0.51518875  0.99273211  0.68955640     0.18500
C591        C  0.58831803  0.00902999  0.75338553     0.12500
C592        C  0.60797829  0.04768176  0.68204635    -0.11900
H593        H  0.56262706  0.04277305  0.62913173     0.12800
C594        C  0.48050752  0.48485946  0.69860992    -0.22700
H595        H  0.52996003  0.97586215  0.74581079     0.08400
C596        C  0.57963000  0.02661952  0.78799104     0.04700
C597        C  0.60356871  0.03329572  0.81530116    -0.19900
C598        C  0.63623571  0.02617628  0.80764266    -0.12200
C599        C  0.64438590  0.00590381  0.77466177     0.13500
C600        C  0.61996754  0.99567070  0.74929747    -0.22700
C601        C  0.54627606  0.04116436  0.79656408    -0.05700
H602        H  0.59713807  0.04765223  0.84119376     0.15000
C603        C  0.67866326  0.99727708  0.76337019    -0.15900
H604        H  0.62641654  0.98030292  0.72397276     0.09300
H605        H  0.46318576  0.50797990  0.69491835     0.07200
H606        H  0.47622969  0.47291552  0.72723417     0.08400
H607        H  0.47576522  0.46276960  0.67761536     0.07400
H608        H  0.62851717  0.02809546  0.68135195     0.02300
H609        H  0.61068944  0.06680813  0.70636664     0.02800
H610        H  0.60933921  0.06432995  0.65559643     0.06300
H611        H  0.54774738  0.07102539  0.80386690     0.05300
H612        H  0.53607101  0.02606393  0.82128540    -0.00500
H613        H  0.52928469  0.03864245  0.77266919     0.01000
H614        H  0.68179031  0.96684552  0.76106809     0.04600
H615        H  0.69666298  0.00791155  0.78360817     0.06600
H616        H  0.68397389  0.01007852  0.73537898     0.07400
C617        C  0.58231305  0.20419316  0.72005428    -0.22200
C618        C  0.57745717  0.16706128  0.72943730     0.09800
C619        C  0.55093201  0.14774735  0.71421344     0.10200
C620        C  0.53040172  0.16573827  0.68885433    -0.17100
C621        C  0.53582405  0.20257900  0.67768480    -0.27500
C622        C  0.56201183  0.22237812  0.69434064     0.18500
C623        C  0.60105805  0.14866162  0.75425233     0.12500
C624        C  0.54394539  0.10786120  0.72325719    -0.11900
H625        H  0.51053774  0.15017341  0.67683677     0.12800
C626        C  0.56924308  0.26246432  0.68563806    -0.22700
H627        H  0.60261792  0.21875176  0.73239349     0.08400
C628        C  0.62996889  0.13397828  0.73935315     0.04700
C629        C  0.64976606  0.11259526  0.76281184    -0.19900
C630        C  0.64191128  0.10720737  0.80108332    -0.12200
C631        C  0.61430517  0.12453513  0.81674853     0.13500
C632        C  0.59373034  0.14438175  0.79280975    -0.22700
C633        C  0.63982350  0.14087967  0.69877706    -0.05700
H634        H  0.67163986  0.10033761  0.75145295     0.15000
C635        C  0.60599808  0.12284500  0.85840035    -0.15900
H636        H  0.57181009  0.15651091  0.80420004     0.09300
H637        H  0.57646635  0.26560207  0.65545348     0.07200
H638        H  0.58948741  0.27327729  0.70299047     0.08400
H639        H  0.54775052  0.27975873  0.69198725     0.07400
H640        H  0.52042155  0.10571275  0.73827215     0.02300
H641        H  0.56275536  0.09495310  0.74104693     0.02800
H642        H  0.54244531  0.09200714  0.69644529     0.06300
H643        H  0.66282487  0.12671427  0.69156045     0.05300
H644        H  0.64323824  0.17103026  0.69416260    -0.00500
H645        H  0.62085288  0.13066796  0.67927185     0.01000
H646        H  0.60571590  0.15131242  0.87026436     0.04600
H647        H  0.62341406  0.10625160  0.87505306     0.06600
H648        H  0.58167405  0.11043218  0.86216632     0.07400
C649        C  0.66855589  0.58677331  0.81766066     0.02600
C650        C  0.66360809  0.54926269  0.82780715     0.02500
C651        C  0.68432026  0.53260485  0.85435749    -0.18000
C652        C  0.71046808  0.55254609  0.86947999     0.02600
C653        C  0.71595087  0.58940411  0.85734488     0.02500
C654        C  0.69518470  0.60591947  0.83143907    -0.18000
H655        H  0.69901342  0.63453802  0.82320497     0.04600
H656        H  0.68012877  0.50425356  0.86314206     0.04600
O657        O  0.52074939  0.75014605  0.63335384    -0.80600
O658        O  0.41477593  0.77370721  0.50649735    -0.65300
O659        O  0.46159420  0.75915391  0.59717007    -1.11900
C660        C  0.45008235  0.63081345  0.57201434     1.06300
O661        O  0.38258905  0.72438376  0.50991846    -0.78500
O662        O  0.38547611  0.69967207  0.58106196    -0.66100
Ni663      Ni  0.50044061  0.78747103  0.60290233     1.34900
C664        C  0.39662576  0.70212293  0.61440311     0.85000
O665        O  0.43397703  0.81841014  0.56084517    -0.79000
O666        O  0.48504558  0.83029757  0.57513182    -0.89300
C667        C  0.38895092  0.75694354  0.49840314     0.84600
O668        O  0.51862101  0.76605115  0.55874669    -0.67500
O669        O  0.42300351  0.64022044  0.55800411    -0.86800
C670        C  0.50666972  0.76633121  0.52571863     0.85400
C671        C  0.45664849  0.84106244  0.56722042     1.07000
H672        H  0.45855080  0.70922362  0.52358672     0.38800
O673        O  0.44367844  0.71420032  0.54413139    -1.09500
O674        O  0.42676919  0.70051072  0.62157888    -0.66100
Ni675      Ni  0.46573745  0.70668369  0.59109589     1.26300
O676        O  0.47706553  0.77412715  0.51963081    -0.66300
O677        O  0.47066348  0.65436915  0.58338186    -0.78600
C678        C  0.51288057  0.71941841  0.64821388     0.84800
O679        O  0.48850285  0.70107200  0.63731923    -0.65800
Ni680      Ni  0.40550987  0.68494235  0.53521781     1.27400
Ni681      Ni  0.43882934  0.76671150  0.55129422     1.26100
H682        H  0.44760358  0.76496052  0.61819604     0.39300
O683        O  0.37778797  0.97276999  0.61900938    -0.80600
O684        O  0.49833857  0.94800928  0.51239855    -0.65300
O685        O  0.44113497  0.96294421  0.59453441    -1.11900
C686        C  0.45842980  0.59086382  0.57310241     1.06300
O687        O  0.52823792  0.99902881  0.51572529    -0.78500
O688        O  0.52142070  0.52182451  0.59344742    -0.66100
Ni689      Ni  0.40177795  0.93502684  0.59310863     1.34900
C690        C  0.50604936  0.51918117  0.62456795     0.85000
O691        O  0.47318744  0.90368699  0.56376463    -0.79000
O692        O  0.42074410  0.89190518  0.56888417    -0.89300
C693        C  0.52314186  0.96635992  0.50364047     0.84600
O694        O  0.38976769  0.95611265  0.54605071    -0.67500
O695        O  0.48723244  0.58158167  0.56469233    -0.86800
C696        C  0.40602379  0.95451013  0.51560704     0.85400
C697        C  0.44988420  0.88107956  0.56631674     1.07000
H698        H  0.45704792  0.51319999  0.52360856     0.38800
O699        O  0.46901182  0.50798291  0.54645244    -1.09500
O700        O  0.47527271  0.52098206  0.62629203    -0.66100
Ni701      Ni  0.44085332  0.51480830  0.58911787     1.26300
O702        O  0.43613872  0.94738884  0.51514426    -0.66300
O703        O  0.43663328  0.56722094  0.58086310    -0.78600
C704        C  0.38670767  0.50064187  0.63768958     0.84800
O705        O  0.41187828  0.51967163  0.63087649    -0.65800
Ni706      Ni  0.50781016  0.53733550  0.54470840     1.27400
Ni707      Ni  0.46950075  0.95527482  0.55302486     1.26100
H708        H  0.45214245  0.95702969  0.61778242     0.39300
C709        C  0.21850433  0.63095985  0.79307529     0.02600
C710        C  0.21995356  0.66996483  0.79627979     0.02500
C711        C  0.19606197  0.68869947  0.81701841    -0.18000
C712        C  0.17050418  0.66903166  0.83360871     0.02600
C713        C  0.16815707  0.63033231  0.82797546     0.02500
C714        C  0.19242740  0.61171577  0.80835152    -0.18000
H715        H  0.19110503  0.58188851  0.80509108     0.04600
H716        H  0.19774685  0.71839217  0.82094883     0.04600
O717        O  0.88254844  0.74881303  0.01448658    -0.80600
O718        O  0.99552005  0.78095255  0.13085144    -0.65300
O719        O  0.94307761  0.75984994  0.04615735    -1.11900
C720        C  0.95961922  0.63462864  0.07699462     1.06300
O721        O  0.02718143  0.73099598  0.13057547    -0.78500
O722        O  0.02006878  0.71024885  0.05706066    -0.66100
Ni723      Ni  0.90340854  0.78731811  0.04351990     1.34900
C724        C  0.00531099  0.70890002  0.02560535     0.85000
O725        O  0.97182738  0.82212964  0.07592156    -0.79000
O726        O  0.91928500  0.83155466  0.06982415    -0.89300
C727        C  0.02046768  0.76380634  0.14136257     0.84600
O728        O  0.88917972  0.76497260  0.08952509    -0.67500
O729        O  0.98847025  0.64629717  0.08073806    -0.86800
C730        C  0.90385788  0.76746201  0.12096953     0.85400
C731        C  0.94793212  0.84391014  0.07360210     1.07000
H732        H  0.95365230  0.71484299  0.12341858     0.38800
O733        O  0.96592430  0.71895668  0.10044040    -1.09500
O734        O  0.97565443  0.69945053  0.02329685    -0.66100
Ni735      Ni  0.93971795  0.70791723  0.05795848     1.26300
O736        O  0.93298838  0.77871671  0.12326829    -0.66300
O737        O  0.93629793  0.65673533  0.07173630    -0.78600
C738        C  0.88876747  0.71570446  0.00434405     0.84800
O739        O  0.91283120  0.69766510  0.01619936    -0.65800
Ni740      Ni  0.00535760  0.69127252  0.10424024     1.27400
Ni741      Ni  0.96905657  0.77081111  0.08885936     1.26100
H742        H  0.95527339  0.76399507  0.02312070     0.39300
O743        O  0.01231080  0.97539086  0.00148600    -0.80600
O744        O  0.92014068  0.95083807  0.14433124    -0.65300
O745        O  0.95793717  0.96799047  0.04728596    -1.11900
C746        C  0.95295295  0.59430236  0.07952451     1.06300
O747        O  0.89493861  0.00481717  0.15292873    -0.78500
O748        O  0.88811384  0.52153419  0.08313004    -0.66100
Ni749      Ni  0.99493032  0.93839988  0.03495818     1.34900
C750        C  0.89448517  0.52416560  0.04793356     0.85000
O751        O  0.93202003  0.90708483  0.08437652    -0.79000
O752        O  0.98195568  0.89580319  0.06489774    -0.89300
C753        C  0.90100617  0.97165479  0.16272007     0.84600
O754        O  0.01779236  0.95933667  0.07618763    -0.67500
O755        O  0.92594499  0.58371976  0.09303250    -0.86800
C756        C  0.00913772  0.95766806  0.11069183     0.85400
C757        C  0.95400546  0.88447284  0.07437078     1.07000
H758        H  0.96696456  0.51328140  0.12517972     0.38800
O759        O  0.94969793  0.51010785  0.10713309    -1.09500
O760        O  0.92316677  0.53040788  0.03590394    -0.66100
Ni761      Ni  0.96556273  0.51995003  0.05746916     1.26300
O762        O  0.98046854  0.94858772  0.12051118    -0.66300
O763        O  0.97399843  0.57116883  0.06850609    -0.78600
C764        C  0.00308189  0.50956744  0.99045141     0.84800
O765        O  0.98239769  0.52869724  0.00824757    -0.65800
Ni766      Ni  0.91401891  0.54036886  0.12295357     1.27400
Ni767      Ni  0.93948756  0.95871829  0.09590335     1.26100
H768        H  0.94181218  0.96433412  0.02792703     0.39300
C769        C  0.22901706  0.89789192  0.34167607     0.02600
C770        C  0.23112920  0.93672827  0.33737600     0.02500
C771        C  0.20890949  0.95531917  0.31435977    -0.18000
C772        C  0.18432985  0.93543734  0.29622033     0.02600
C773        C  0.18213830  0.89668326  0.30137581     0.02500
C774        C  0.20435091  0.87836535  0.32404983    -0.18000
H775        H  0.20287764  0.84854046  0.32728319     0.04600
H776        H  0.21078880  0.98500464  0.31048250     0.04600
C777        C  0.69512520  0.83511841  0.35728609     0.02600
C778        C  0.69269475  0.79608863  0.35618766     0.02500
C779        C  0.71690442  0.77564002  0.33758680    -0.18000
C780        C  0.74332109  0.79383677  0.32063515     0.02600
C781        C  0.74597295  0.83282990  0.32343264     0.02500
C782        C  0.72168052  0.85292437  0.34137905    -0.18000
H783        H  0.72312883  0.88290471  0.34234605     0.04600
H784        H  0.71510130  0.74575043  0.33609045     0.04600
C785        C  0.87390071  0.91139999  0.24580617    -0.22200
C786        C  0.84200472  0.92358107  0.24966864     0.09800
C787        C  0.83207171  0.95598600  0.23088931     0.10200
C788        C  0.85283007  0.97229666  0.20436304    -0.17100
C789        C  0.88313601  0.95665351  0.19586457    -0.27500
C790        C  0.89447466  0.92678446  0.21827947     0.18500
C791        C  0.81826201  0.89909368  0.26843794     0.12500
C792        C  0.79929259  0.97271089  0.23810228    -0.11900
H793        H  0.84438438  0.99611426  0.18857781     0.12800
C794        C  0.92775160  0.91054418  0.21329252    -0.22700
H795        H  0.88198157  0.88814676  0.26260030     0.08400
C796        C  0.79544096  0.87890746  0.24692199     0.04700
C797        C  0.77226916  0.85756844  0.26571948    -0.19900
C798        C  0.77236286  0.85408295  0.30523244    -0.12200
C799        C  0.79570191  0.87333786  0.32676067     0.13500
C800        C  0.81852265  0.89563006  0.30801441    -0.22700
C801        C  0.79505511  0.87862624  0.20410388    -0.05700
H802        H  0.75378753  0.84373159  0.24932303     0.15000
C803        C  0.79634258  0.87072603  0.36941245    -0.15900
H804        H  0.83630964  0.91083948  0.32422902     0.09300
H805        H  0.92987452  0.89685947  0.18522298     0.07200
H806        H  0.93295368  0.88919887  0.23512060     0.08400
H807        H  0.94623357  0.93266595  0.21584747     0.07400
H808        H  0.79676159  0.97945226  0.26869733     0.02300
H809        H  0.77996923  0.95306563  0.22993791     0.02800
H810        H  0.79576321  0.99859847  0.22162825     0.06300
H811        H  0.77184446  0.89014575  0.19383989     0.05300
H812        H  0.79737167  0.84968646  0.19387513    -0.00500
H813        H  0.81502456  0.89468571  0.19115054     0.01000
H814        H  0.81683359  0.88654644  0.38156642     0.04600
H815        H  0.79884932  0.84142372  0.37822028     0.06600
H816        H  0.77371448  0.88212473  0.38158535     0.07400
C817        C  0.10962096  0.98148169  0.25738112    -0.22200
C818        C  0.11086847  0.96838426  0.21992998     0.09800
C819        C  0.13910922  0.95056933  0.20657375     0.10200
C820        C  0.16483882  0.94529793  0.23142561    -0.17100
C821        C  0.16198362  0.95418215  0.26994707    -0.27500
C822        C  0.13466891  0.97395793  0.28290184     0.18500
C823        C  0.08176926  0.97084495  0.19598739     0.12500
C824        C  0.14225359  0.93415929  0.16734683    -0.11900
H825        H  0.18606651  0.93054983  0.22156437     0.12800
C826        C  0.13049858  0.98599899  0.32354102    -0.22700
H827        H  0.08819637  0.99577353  0.26731458     0.08400
C828        C  0.05512806  0.94720762  0.20218720     0.04700
C829        C  0.03117139  0.94456756  0.17443174    -0.19900
C830        C  0.03347503  0.96463101  0.14042079    -0.12200
C831        C  0.05914784  0.99026446  0.13546443     0.13500
C832        C  0.08273889  0.99333484  0.16367696    -0.22700
C833        C  0.05269149  0.92349083  0.23720434    -0.05700
H834        H  0.01129325  0.92544304  0.17861304     0.15000
C835        C  0.06212062  0.01441465  0.10068653    -0.15900
H836        H  0.10318409  0.01165912  0.15949224     0.09300
H837        H  0.10834214  0.97325401  0.33561034     0.07200
H838        H  0.12798202  0.01657668  0.32463859     0.08400
H839        H  0.15108423  0.97813168  0.34176970     0.07400
H840        H  0.12000383  0.93617092  0.15024614     0.02300
H841        H  0.16206528  0.94830626  0.15177123     0.02800
H842        H  0.14816526  0.90429159  0.16970215     0.06300
H843        H  0.03125607  0.90502195  0.23652268     0.05300
H844        H  0.05078643  0.94124903  0.26278100    -0.00500
H845        H  0.07450156  0.90602786  0.23944003     0.01000
H846        H  0.08227935  0.03454005  0.10325151     0.04600
H847        H  0.03950884  0.03036875  0.09656066     0.06600
H848        H  0.06712412  0.99721340  0.07527211     0.07400
C849        C  0.82180909  0.75293858  0.28499777    -0.22200
C850        C  0.81600308  0.75389729  0.24577233     0.09800
C851        C  0.78435141  0.76047150  0.23257236     0.10200
C852        C  0.75992193  0.76897941  0.25870654    -0.17100
C853        C  0.76673530  0.77278174  0.29736915    -0.27500
C854        C  0.79756374  0.76291723  0.31102325     0.18500
C855        C  0.84358268  0.75366805  0.21877227     0.12500
C856        C  0.77672610  0.76124221  0.19078529    -0.11900
H857        H  0.73605953  0.77615887  0.24856855     0.12800
C858        C  0.80586163  0.76403805  0.35253370    -0.22700
H859        H  0.84598725  0.74731010  0.29512016     0.08400
C860        C  0.86408792  0.78481330  0.21497044     0.04700
C861        C  0.88540171  0.78696255  0.18416361    -0.19900
C862        C  0.88582158  0.75961437  0.15613673    -0.12200
C863        C  0.86708859  0.72717130  0.16115521     0.13500
C864        C  0.84642290  0.72448173  0.19271600    -0.22700
C865        C  0.86261133  0.81783306  0.24079046    -0.05700
H866        H  0.90005987  0.81163448  0.18052351     0.15000
C867        C  0.86821925  0.69500685  0.13392480    -0.15900
H868        H  0.83121374  0.70024460  0.19597813     0.09300
H869        H  0.82581291  0.78402787  0.35720548     0.07200
H870        H  0.81386869  0.73615915  0.36181017     0.08400
H871        H  0.78506217  0.77219660  0.37057388     0.07400
H872        H  0.78093609  0.73351141  0.17821272     0.02300
H873        H  0.79223145  0.78191789  0.17616899     0.02800
H874        H  0.75115761  0.76878484  0.18551688     0.06300
H875        H  0.88645035  0.82176907  0.25448092     0.05300
H876        H  0.84405466  0.81597424  0.26329939    -0.00500
H877        H  0.85689054  0.84243930  0.22333332     0.01000
H878        H  0.87477209  0.66943172  0.14957638     0.04600
H879        H  0.88627138  0.69865421  0.11096184     0.06600
H880        H  0.84410953  0.69110853  0.12087950     0.07400
C881        C  0.10426046  0.84932813  0.27319710    -0.22200
C882        C  0.11335232  0.83432652  0.23813804     0.09800
C883        C  0.14534341  0.83797137  0.22500529     0.10200
C884        C  0.16756126  0.85744794  0.24707360    -0.17100
C885        C  0.15808354  0.87415500  0.28121595    -0.27500
C886        C  0.12625625  0.86961744  0.29487790     0.18500
C887        C  0.08867227  0.81620474  0.21478042     0.12500
C888        C  0.15587062  0.82155751  0.18766827    -0.11900
H889        H  0.19220722  0.86070834  0.23716455     0.12800
C890        C  0.11475075  0.88584256  0.33187917    -0.22700
H891        H  0.07960725  0.84609741  0.28311554     0.08400
C892        C  0.08076981  0.77863303  0.21978385     0.04700
C893        C  0.05818130  0.76226314  0.19556424    -0.19900
C894        C  0.04298222  0.78295332  0.16703424    -0.12200
C895        C  0.05048100  0.82108655  0.16277124     0.13500
C896        C  0.07357521  0.83704801  0.18654869    -0.22700
C897        C  0.09651735  0.75587263  0.25033589    -0.05700
H898        H  0.05227495  0.73321332  0.19898389     0.15000
C899        C  0.03524495  0.84496423  0.13261101    -0.15900
H900        H  0.08020771  0.86587141  0.18290463     0.09300
H901        H  0.10614377  0.86325941  0.35075455     0.07200
H902        H  0.09443354  0.90511279  0.32641115     0.08400
H903        H  0.13387661  0.90126212  0.34708246     0.07400
H904        H  0.14160170  0.83377376  0.16421556     0.02300
H905        H  0.15206174  0.79114209  0.18809811     0.02800
H906        H  0.18180875  0.82695137  0.18179953     0.06300
H907        H  0.08768289  0.72684149  0.25027993     0.05300
H908        H  0.09110737  0.76807050  0.27855892    -0.00500
H909        H  0.12305470  0.75546641  0.24588638     0.01000
H910        H  0.04579617  0.87323583  0.13201024     0.04600
H911        H  0.00902976  0.84804917  0.13832859     0.06600
H912        H  0.03908947  0.83239018  0.10420989     0.07400
C913        C  0.12014979  0.69151222  0.91960266    -0.22200
C914        C  0.09457815  0.71097276  0.90313129     0.09800
C915        C  0.09698709  0.72271246  0.86502477     0.10200
C916        C  0.12357912  0.71103237  0.84315134    -0.17100
C917        C  0.14749456  0.68827171  0.85895415    -0.27500
C918        C  0.14678607  0.68045207  0.89818972     0.15300
C919        C  0.06626137  0.71823000  0.92764577     0.12500
C920        C  0.07161790  0.74709255  0.84757395    -0.11900
H921        H  0.12483905  0.71793897  0.81325489     0.12800
C922        C  0.17354561  0.66026094  0.91832385    -0.22700
H923        H  0.11894318  0.68409715  0.94940496     0.08400
C924        C  0.03832443  0.69566248  0.92655361     0.04700
C925        C  0.01737456  0.69531695  0.95794540    -0.19900
C926        C  0.02388542  0.71653470  0.99043644    -0.12200
C927        C  0.04981181  0.74222457  0.98945302     0.13500
C928        C  0.07078653  0.74232717  0.95824633    -0.22700
C929        C  0.03078190  0.67005652  0.89395089    -0.05700
H930        H  0.99710204  0.67631667  0.95802904     0.15000
C931        C  0.05653382  0.76975673  0.02065070    -0.15900
H932        H  0.09195370  0.76001922  0.95869131     0.09300
H933        H  0.16397161  0.63440542  0.93116094     0.07200
H934        H  0.18317087  0.67808189  0.94131804     0.08400
H935        H  0.19397513  0.65308542  0.89931196     0.07400
H936        H  0.06980181  0.77330853  0.86386802     0.02300
H937        H  0.04783923  0.73301456  0.84797289     0.02800
H938        H  0.07757860  0.75405983  0.81765685     0.06300
H939        H  0.02772160  0.64128967  0.90442115     0.05300
H940        H  0.04985223  0.66981392  0.87187701    -0.00500
H941        H  0.00782373  0.67879311  0.88055069     0.01000
H942        H  0.07947954  0.76246157  0.03500226     0.04600
H943        H  0.03693916  0.77160998  0.04199642     0.06600
H944        H  0.05899643  0.79786478  0.00819715     0.07400
C945        C  0.04934673  0.52609786  0.89902580    -0.22200
C946        C  0.06650365  0.55799619  0.90901568     0.09800
C947        C  0.06017616  0.57583987  0.94383923     0.10200
C948        C  0.03714748  0.56075796  0.96846852    -0.17100
C949        C  0.02144900  0.52743517  0.95975814    -0.27500
C950        C  0.03108782  0.00734857  0.92642485     0.18500
C951        C  0.09242900  0.57144092  0.88395833     0.12500
C952        C  0.07884216  0.60972664  0.95584343    -0.11900
H953        H  0.03303079  0.57365645  0.99584503     0.12800
C954        C  0.01339321  0.97290675  0.91419368    -0.22700
H955        H  0.05878183  0.00896313  0.87451758     0.08400
C956        C  0.12491929  0.56322992  0.89198142     0.04700
C957        C  0.14921525  0.58221669  0.87243803    -0.19900
C958        C  0.14156900  0.60824670  0.84437620    -0.12200
C959        C  0.10910138  0.61293161  0.83315500     0.13500
C960        C  0.08472979  0.59506475  0.85383746    -0.22700
C961        C  0.13383308  0.53455425  0.92119787    -0.05700
H962        H  0.17426877  0.57757600  0.87980569     0.15000
C963        C  0.09950658  0.63571836  0.79921296    -0.15900
H964        H  0.05963874  0.60004189  0.84689383     0.09300
H965        H  0.03077791  0.94972136  0.91108541     0.07200
H966        H  0.00165432  0.97794167  0.88640433     0.08400
H967        H  0.99417465  0.96446385  0.93436131     0.07400
H968        H  0.07751739  0.63118436  0.93357628     0.02300
H969        H  0.10459409  0.60269399  0.96017846     0.02800
H970        H  0.06932452  0.62165471  0.98268068     0.06300
H971        H  0.16040095  0.53141196  0.92365547     0.05300
H972        H  0.12354611  0.50736413  0.91288652    -0.00500
H973        H  0.12421296  0.54227431  0.94949616     0.01000
H974        H  0.08666921  0.61780092  0.77860493     0.04600
H975        H  0.12047014  0.64810820  0.78424412     0.06600
H976        H  0.08298777  0.65826184  0.80819238     0.07400
C977        C  0.57784871  0.89535430  0.45680974    -0.22200
C978        C  0.59728346  0.91821817  0.43440570     0.09800
C979        C  0.59206551  0.95675348  0.43384970     0.10200
C980        C  0.56712420  0.97156358  0.45601906    -0.17100
C981        C  0.54755319  0.94876181  0.47886241    -0.27500
C982        C  0.55306475  0.90992952  0.47918877     0.18500
C983        C  0.62364629  0.90048381  0.41331478     0.12500
C984        C  0.61271329  0.98293349  0.41095173    -0.11900
H985        H  0.56318897  0.00123317  0.45571203     0.12800
C986        C  0.53428287  0.88354450  0.50414001    -0.22700
H987        H  0.58275693  0.86589570  0.45751156     0.08400
C988        C  0.65361861  0.89377929  0.43070054     0.04700
C989        C  0.67681081  0.87298436  0.41126767    -0.19900
C990        C  0.67024185  0.85831663  0.37532260    -0.12200
C991        C  0.64053193  0.86600636  0.35745405     0.13500
C992        C  0.61745716  0.88703754  0.37685099    -0.22700
C993        C  0.66077510  0.90802753  0.46993452    -0.05700
H994        H  0.69985392  0.86725277  0.42448798     0.15000
C995        C  0.63245325  0.85266163  0.31814497    -0.15900
H996        H  0.59423476  0.89231508  0.36384500     0.09300
H997        H  0.54372602  0.85482606  0.50231005     0.07200
H998        H  0.50864434  0.88262713  0.49522017     0.08400
H999        H  0.53605568  0.89233484  0.53423524     0.07400
H1000       H  0.59735759  0.99824605  0.39054093     0.02300
H1001       H  0.63193122  0.96860301  0.39466168     0.02800
H1002       H  0.62446123  0.00310511  0.43025427     0.06300
H1003       H  0.68543934  0.90030303  0.47925724     0.05300
H1004       H  0.64324385  0.89623628  0.49055764    -0.00500
H1005       H  0.65889211  0.93868268  0.47026547     0.01000
H1006       H  0.61060632  0.83489397  0.31942754     0.04600
H1007       H  0.62738926  0.87682165  0.29963514     0.06600
H1008       H  0.65223085  0.83658538  0.30480866     0.07400
C1009       C  0.36064766  0.93826088  0.42431399    -0.22200
C1010       C  0.34221168  0.97081868  0.42278756     0.09800
C1011       C  0.34895071  0.00003680  0.44805404     0.10200
C1012       C  0.37195389  0.99469828  0.47653646    -0.17100
C1013       C  0.38862585  0.96107286  0.47995010    -0.27500
C1014       C  0.38415647  0.93313554  0.45235084     0.18500
C1015       C  0.31291997  0.97107505  0.39894780     0.12500
C1016       C  0.33140937  0.03648450  0.44550249    -0.11900
H1017       H  0.37592910  0.01628250  0.49738399     0.12800
C1018       C  0.40223450  0.89694154  0.45262155    -0.22700
H1019       H  0.35532628  0.91576733  0.40493091     0.08400
C1020       C  0.31435964  0.96977381  0.35895779     0.04700
C1021       C  0.28587724  0.96352908  0.33852006    -0.19900
C1022       C  0.25655767  0.95733545  0.35744304    -0.12200
C1023       C  0.25459777  0.96248496  0.39701971     0.13500
C1024       C  0.28291061  0.96883469  0.41738597    -0.22700
C1025       C  0.34591181  0.97367073  0.33799981    -0.05700
H1026       H  0.28696066  0.96024783  0.30798078     0.15000
C1027       C  0.22319622  0.95985628  0.41857270    -0.15900
H1028       H  0.28175530  0.97018812  0.44809660     0.09300
H1029       H  0.41629380  0.89424076  0.42588668     0.07200
H1030       H  0.38488351  0.87367993  0.45423240     0.08400
H1031       H  0.41914732  0.89417068  0.47664631     0.07400
H1032       H  0.30526703  0.03260737  0.45102881     0.02300
H1033       H  0.33480310  0.04842414  0.41673169     0.02800
H1034       H  0.34063318  0.05675637  0.46652463     0.06300
H1035       H  0.34245070  0.97291084  0.30677640     0.05300
H1036       H  0.36240310  0.95071600  0.34565957    -0.00500
H1037       H  0.35735252  0.00048162  0.34544505     0.01000
H1038       H  0.22434068  0.93664148  0.43915586     0.04600
H1039       H  0.20218287  0.95540187  0.39971826     0.06600
H1040       H  0.21904488  0.98605526  0.43432624     0.07400
C1041       C  0.29155693  0.57059218  0.77340064    -0.22200
C1042       C  0.28928246  0.56647015  0.73401841     0.09800
C1043       C  0.26308036  0.58223117  0.71436083     0.10200
C1044       C  0.24081592  0.60408760  0.73424589    -0.17100
C1045       C  0.24358752  0.60915610  0.77346425    -0.27500
C1046       C  0.26859226  0.59121850  0.79357819     0.18500
C1047       C  0.31578821  0.54815189  0.71318305     0.12500
C1048       C  0.25874869  0.57601403  0.67242811    -0.11900
H1049       H  0.22095116  0.61695718  0.71929409     0.12800
C1050       C  0.27179719  0.59335189  0.83611401    -0.22700
H1051       H  0.31151815  0.55793362  0.78837221     0.08400
C1052       C  0.34354164  0.56809339  0.70249249     0.04700
C1053       C  0.36629618  0.55162770  0.67848079    -0.19900
C1054       C  0.36231506  0.51522777  0.66510682    -0.12200
C1055       C  0.33038735  0.00001457  0.67233850     0.13500
C1056       C  0.31206187  0.51147842  0.70150646    -0.22700
C1057       C  0.34901873  0.60692351  0.71632388    -0.05700
H1058       H  0.38711750  0.56771703  0.66975037     0.15000
C1059       C  0.32270712  0.96103562  0.65982354    -0.15900
H1060       H  0.28535244  0.00421255  0.70303660     0.09300
H1061       H  0.29562994  0.60537758  0.84346884     0.07200
H1062       H  0.27014029  0.56506158  0.84830072     0.08400
H1063       H  0.25287994  0.61059787  0.84966240     0.07400
H1064       H  0.25528258  0.54603305  0.66686038     0.02300
H1065       H  0.28041006  0.58575174  0.65672628     0.02800
H1066       H  0.23739123  0.59103135  0.66134248     0.06300
H1067       H  0.37142860  0.61924786  0.70438165     0.05300
H1068       H  0.35106817  0.60660610  0.74769473    -0.00500
H1069       H  0.32846591  0.62468782  0.70810795     0.01000
H1070       H  0.29970684  0.95081265  0.67231148     0.04600
H1071       H  0.34209300  0.94189247  0.66906076     0.06600
H1072       H  0.31994875  0.96004835  0.62852942     0.07400
C1073       C  0.57628986  0.72854682  0.46752303    -0.22200
C1074       C  0.57849746  0.75536326  0.43894374     0.09800
C1075       C  0.55355160  0.78174989  0.43501952     0.10200
C1076       C  0.52873856  0.78310605  0.46231468    -0.17100
C1077       C  0.52873505  0.75898102  0.49353198    -0.27500
C1078       C  0.55188842  0.73018528  0.49514245     0.18500
C1079       C  0.60959451  0.75957345  0.41831461     0.12500
C1080       C  0.55398316  0.80954027  0.40314485    -0.11900
H1081       H  0.51053720  0.80457695  0.46061385     0.12800
C1082       C  0.55133379  0.70138835  0.52617219    -0.22700
H1083       H  0.59512248  0.70785685  0.46978619     0.08400
C1084       C  0.63682534  0.77422347  0.43710362     0.04700
C1085       C  0.66480729  0.78203023  0.41626601    -0.19900
C1086       C  0.66590180  0.77736083  0.37680332    -0.12200
C1087       C  0.63934281  0.76069447  0.35822167     0.13500
C1088       C  0.61153890  0.75171182  0.37938558    -0.22700
C1089       C  0.63586520  0.78384142  0.47874688    -0.05700
H1090       H  0.68533697  0.79437625  0.43044852     0.15000
C1091       C  0.63889072  0.75334127  0.31617026    -0.15900
H1092       H  0.59075975  0.74000958  0.36514347     0.09300
H1093       H  0.55684583  0.71418935  0.55399302     0.07200
H1094       H  0.56960323  0.67942587  0.52115688     0.08400
H1095       H  0.52721972  0.68799132  0.52738722     0.07400
H1096       H  0.55225941  0.79492123  0.37554213     0.02300
H1097       H  0.57674552  0.82568390  0.40373054     0.02800
H1098       H  0.53347171  0.82922456  0.40521391     0.06300
H1099       H  0.65875773  0.79679723  0.48827753     0.05300
H1100       H  0.63203053  0.75847227  0.49591665    -0.00500
H1101       H  0.61600680  0.80375782  0.48435853     0.01000
H1102       H  0.63592106  0.72318729  0.31118247     0.04600
H1103       H  0.61825267  0.76809627  0.30308881     0.06600
H1104       H  0.66119823  0.76245952  0.30153041     0.07400
C1105       C  0.33031790  0.82993189  0.46451936    -0.22200
C1106       C  0.31956307  0.81419608  0.43059145     0.09800
C1107       C  0.33111579  0.77907896  0.41929022     0.10200
C1108       C  0.35374733  0.76079341  0.44209090    -0.17100
C1109       C  0.36467204  0.77672475  0.47592689    -0.27500
C1110       C  0.35198917  0.81120274  0.48794430     0.18500
C1111       C  0.29586130  0.83499360  0.40782071     0.12500
C1112       C  0.31912161  0.76053746  0.38374578    -0.11900
H1113       H  0.36310808  0.73407604  0.43341629     0.12800
C1114       C  0.35937968  0.82830662  0.52597189    -0.22700
H1115       H  0.32121449  0.85680086  0.47317371     0.08400
C1116       C  0.26405437  0.84105732  0.42100040     0.04700
C1117       C  0.24300755  0.86245471  0.39909690    -0.19900
C1118       C  0.25271651  0.87662475  0.36386263    -0.12200
C1119       C  0.28384383  0.86850219  0.34961279     0.13500
C1120       C  0.30546777  0.84903656  0.37249624    -0.22700
C1121       C  0.25194238  0.82395955  0.45738689    -0.05700
H1122       H  0.21867960  0.86774074  0.40915520     0.15000
C1123       C  0.29453746  0.87832786  0.30994998    -0.15900
H1124       H  0.32980965  0.84403301  0.36233075     0.09300
H1125       H  0.33643198  0.83395770  0.54129919     0.07200
H1126       H  0.37247126  0.85483841  0.52192091     0.08400
H1127       H  0.37378717  0.81003295  0.54450133     0.07400
H1128       H  0.32591509  0.77707588  0.35843963     0.02300
H1129       H  0.29245422  0.75773178  0.38506024     0.02800
H1130       H  0.32960138  0.73245540  0.38020210     0.06300
H1131       H  0.22599487  0.83008201  0.46231026     0.05300
H1132       H  0.26560535  0.83490744  0.48192133    -0.00500
H1133       H  0.25483056  0.79342612  0.45606554     0.01000
H1134       H  0.31625508  0.89628287  0.31114386     0.04600
H1135       H  0.27563358  0.89277632  0.29346614     0.06600
H1136       H  0.30084651  0.85260602  0.29436679     0.07400
C1137       C  0.35186754  0.73078976  0.70500504    -0.22200
C1138       C  0.32244892  0.71228180  0.70000862     0.09800
C1139       C  0.31775383  0.69075412  0.66690833     0.10200
C1140       C  0.34276362  0.68773093  0.64037967    -0.17100
C1141       C  0.37254743  0.70555705  0.64556192    -0.27500
C1142       C  0.37719363  0.72729487  0.67858890     0.18500
C1143       C  0.29785093  0.71258919  0.73083503     0.12500
C1144       C  0.28680239  0.66990124  0.65956626    -0.11900
H1145       H  0.33899892  0.67099085  0.61525380     0.12800
C1146       C  0.40801744  0.74804864  0.68586559    -0.22700
H1147       H  0.35505132  0.74804029  0.72982536     0.08400
C1148       C  0.30397750  0.69574648  0.76635787     0.04700
C1149       C  0.27784807  0.68527457  0.78928062    -0.19900
C1150       C  0.24605842  0.69096077  0.77735881    -0.12200
C1151       C  0.24010146  0.71219637  0.74452782     0.13500
C1152       C  0.26627931  0.72370621  0.72214310    -0.22700
C1153       C  0.33769118  0.68735846  0.77973296    -0.05700
H1154       H  0.28212736  0.67052835  0.81553283     0.15000
C1155       C  0.20623373  0.72035597  0.73157476    -0.15900
H1156       H  0.26188736  0.73856556  0.69596405     0.09300
H1157       H  0.40742601  0.76269873  0.71356308     0.07200
H1158       H  0.41131602  0.76929095  0.66358417     0.08400
H1159       H  0.42881004  0.72873122  0.68650319     0.07400
H1160       H  0.26686449  0.68948651  0.65375471     0.02300
H1161       H  0.28045973  0.65265810  0.68448548     0.02800
H1162       H  0.28888036  0.65139602  0.63452425     0.06300
H1163       H  0.35077635  0.71358888  0.78519822     0.05300
H1164       H  0.35104130  0.67122685  0.75812805    -0.00500
H1165       H  0.33759007  0.67120687  0.80655277     0.01000
H1166       H  0.19351791  0.73724705  0.75324618     0.04600
H1167       H  0.19287330  0.69406395  0.72713320     0.06600
H1168       H  0.20604713  0.73604549  0.70447422     0.07400
C1169       C  0.77929248  0.50241865  0.91838132    -0.22200
C1170       C  0.78136820  0.52322200  0.95189196     0.09800
C1171       C  0.75717347  0.54963802  0.96017281     0.10200
C1172       C  0.73164129  0.55437618  0.93477188    -0.17100
C1173       C  0.73127482  0.53633785  0.89949705    -0.27500
C1174       C  0.75492228  0.50909929  0.89166790     0.18500
C1175       C  0.81079543  0.51970652  0.97540588     0.12500
C1176       C  0.75866806  0.57540211  0.99379880    -0.11900
H1177       H  0.71351903  0.57521087  0.94083536     0.12800
C1178       C  0.75648785  0.48811073  0.85480989    -0.22700
H1179       H  0.79794946  0.48229485  0.91200372     0.08400
C1180       C  0.81009977  0.50386214  0.01189789     0.04700
C1181       C  0.83803334  0.50492491  0.03420840    -0.19900
C1182       C  0.86701030  0.52091172  0.02081789    -0.12200
C1183       C  0.86811323  0.53435382  0.98294223     0.13500
C1184       C  0.83989810  0.53368132  0.96096630    -0.22700
C1185       C  0.78000050  0.48566160  0.02722230    -0.05700
H1186       H  0.83702425  0.49337284  0.06256136     0.15000
C1187       C  0.89837332  0.55015426  0.96538239    -0.15900
H1188       H  0.84027771  0.54480402  0.93244311     0.09300
H1189       H  0.75438619  0.45798530  0.86059206     0.07200
H1190       H  0.77999304  0.49356835  0.84063202     0.08400
H1191       H  0.73719690  0.49587187  0.83482211     0.07400
H1192       H  0.78039266  0.57133299  0.01149474     0.02300
H1193       H  0.73700239  0.57126383  0.01194665     0.02800
H1194       H  0.75899497  0.60451170  0.98365519     0.06300
H1195       H  0.78394309  0.47369846  0.05585980     0.05300
H1196       H  0.77252859  0.46294017  0.00795551    -0.00500
H1197       H  0.76011911  0.50604789  0.02949369     0.01000
H1198       H  0.91745099  0.52860855  0.96433491     0.04600
H1199       H  0.90684681  0.57429273  0.98205542     0.06600
H1200       H  0.89428903  0.55975516  0.93584797     0.07400
C1201       C  0.76282553  0.65895094  0.91571930    -0.22200
C1202       C  0.79451901  0.64839577  0.90729303     0.09800
C1203       C  0.80052402  0.62024008  0.88056083     0.10200
C1204       C  0.77434560  0.60229403  0.86352022    -0.17100
C1205       C  0.74251234  0.61191844  0.87297211    -0.27500
C1206       C  0.73661555  0.64098763  0.89901537     0.18500
C1207       C  0.82070911  0.66498236  0.92963519     0.12500
C1208       C  0.83448056  0.60923136  0.87023825    -0.11900
H1209       H  0.77862563  0.58006034  0.84347330     0.12800
C1210       C  0.70323628  0.65251698  0.91149922    -0.22700
H1211       H  0.75851987  0.68042994  0.93663266     0.08400
C1212       C  0.83255544  0.70073303  0.92179959     0.04700
C1213       C  0.85522592  0.71656072  0.94636203    -0.19900
C1214       C  0.86645741  0.69706362  0.97813463    -0.12200
C1215       C  0.85505308  0.66072030  0.98530894     0.13500
C1216       C  0.83216055  0.64523912  0.96094218    -0.22700
C1217       C  0.82123097  0.72197829  0.88759311    -0.05700
H1218       H  0.86417216  0.74425776  0.94083827     0.15000
C1219       C  0.86566697  0.63871277  0.01944315    -0.15900
H1220       H  0.82260748  0.61783342  0.96666881     0.09300
H1221       H  0.69924641  0.68200424  0.90398585     0.07200
H1222       H  0.70104387  0.64936679  0.94274213     0.08400
H1223       H  0.68375517  0.63589866  0.89856564     0.07400
H1224       H  0.84748942  0.59958320  0.89581609     0.02300
H1225       H  0.84744994  0.63344472  0.85815921     0.02800
H1226       H  0.83488890  0.58659085  0.84893268     0.06300
H1227       H  0.83334220  0.74932628  0.88527045     0.05300
H1228       H  0.79481414  0.72672712  0.88950956    -0.00500
H1229       H  0.82667495  0.70596130  0.86145653     0.01000
H1230       H  0.85268375  0.61187065  0.02163789     0.04600
H1231       H  0.86078781  0.65462956  0.04579557     0.06600
H1232       H  0.89180363  0.63244006  0.01732848     0.07400
C1233       C  0.53585420  0.49490992  0.72495489    -0.22200
C1234       C  0.56750227  0.50872667  0.72338691     0.09800
C1235       C  0.57887557  0.52428785  0.68894216     0.10200
C1236       C  0.55816747  0.52669324  0.65781890    -0.17100
C1237       C  0.52585227  0.51489346  0.65972150    -0.27500
C1238       C  0.51457126  0.49868632  0.69405117     0.18500
C1239       C  0.58824797  0.50877062  0.75795450     0.12500
C1240       C  0.61239877  0.54024798  0.68497281    -0.11900
H1241       H  0.56726896  0.53917346  0.63193888     0.12800
C1242       C  0.48322413  0.97320183  0.69272228    -0.22700
H1243       H  0.52746060  0.48218125  0.75104291     0.08400
C1244       C  0.58094774  0.53021014  0.79066172     0.04700
C1245       C  0.60550341  0.53757551  0.81688609    -0.19900
C1246       C  0.63756204  0.52762978  0.80934824    -0.12200
C1247       C  0.64410852  0.50310964  0.77904849     0.13500
C1248       C  0.61879543  0.49209959  0.75531397    -0.22700
C1249       C  0.54875826  0.54837841  0.79799815    -0.05700
H1250       H  0.60027224  0.55486741  0.84119957     0.15000
C1251       C  0.67768491  0.49063151  0.76863640    -0.15900
H1252       H  0.62399677  0.47385698  0.73165467     0.09300
H1253       H  0.48007235  0.95983307  0.72087766     0.07200
H1254       H  0.48192231  0.95115692  0.67094900     0.08400
H1255       H  0.46313228  0.99314764  0.68905700     0.07400
H1256       H  0.63069736  0.51791917  0.68511225     0.02300
H1257       H  0.61710047  0.55959970  0.70861995     0.02800
H1258       H  0.61553840  0.55569022  0.65796628     0.06300
H1259       H  0.55223334  0.57867321  0.80150965     0.05300
H1260       H  0.53819875  0.53714578  0.82461301    -0.00500
H1261       H  0.53106878  0.54451475  0.77506080     0.01000
H1262       H  0.67898359  0.45996782  0.76993798     0.04600
H1263       H  0.69649792  0.50200519  0.78744133     0.06600
H1264       H  0.68342215  0.49975199  0.73927690     0.07400
C1265       C  0.57976816  0.70536158  0.72116236    -0.22200
C1266       C  0.57735026  0.66721274  0.72697795     0.09800
C1267       C  0.55181186  0.64727151  0.71039691     0.10200
C1268       C  0.53046180  0.66550594  0.68625582    -0.17100
C1269       C  0.53395237  0.70334178  0.67797762    -0.27500
C1270       C  0.55832266  0.72391265  0.69703569     0.18500
C1271       C  0.60210258  0.64864939  0.75001376     0.12500
C1272       C  0.54674522  0.60656082  0.71666558    -0.11900
H1273       H  0.51163149  0.64942486  0.67273577     0.12800
C1274       C  0.56203992  0.76525278  0.69277466    -0.22700
H1275       H  0.59902789  0.72050416  0.73497028     0.08400
C1276       C  0.62890011  0.63120191  0.73292695     0.04700
C1277       C  0.64994055  0.61036898  0.75552856    -0.19900
C1278       C  0.64516051  0.60788099  0.79481208    -0.12200
C1279       C  0.61961730  0.62775248  0.81215809     0.13500
C1280       C  0.59800182  0.64734262  0.78935489    -0.22700
C1281       C  0.63522130  0.63483170  0.69097112    -0.05700
H1282       H  0.67026767  0.59619807  0.74264922     0.15000
C1283       C  0.61451440  0.62906312  0.85451984    -0.15900
H1284       H  0.57769744  0.66152692  0.80229434     0.09300
H1285       H  0.56993158  0.77224497  0.66352726     0.07200
H1286       H  0.58053437  0.77654742  0.71235178     0.08400
H1287       H  0.53881411  0.77916179  0.69947489     0.07400
H1288       H  0.52305733  0.60189631  0.73069682     0.02300
H1289       H  0.56577793  0.59379670  0.73425877     0.02800
H1290       H  0.54663975  0.59259230  0.68875426     0.06300
H1291       H  0.65707129  0.61921846  0.68212124     0.05300
H1292       H  0.63890164  0.66443627  0.68366103    -0.00500
H1293       H  0.61433365  0.62405732  0.67474549     0.01000
H1294       H  0.61676196  0.65809976  0.86448578     0.04600
H1295       H  0.63208316  0.61200291  0.87039785     0.06600
H1296       H  0.58992552  0.61886032  0.86156083     0.07400
loop_ 
_geom_bond_atom_site_label_1 
_geom_bond_atom_site_label_2 
_geom_bond_distance 
_geom_bond_site_symmetry_2 
_ccdc_geom_bond_type 
C1            C2   1.416       .  A
C1            C6   1.391       .  A
C1          C630   1.473       .  S
C2            C3   1.411       .  A
C2          C598   1.489       .  S
C3            C4   1.409       .  A
C3            H8   1.083   1_545  S
C4            C5   1.413       .  A
C4          C525   1.485       .  S
C5            C6   1.390       .  A
C5          C557   1.476       .  S
C6            H7   1.085       .  S
O9          Ni15   1.916       .  S
O9           C30   1.268       .  A
O10         Ni33   1.884       .  S
O10          C19   1.262       .  A
O11         Ni15   1.919       .  S
O11         Ni33   1.893       .  S
O11         Ni27   1.916       .  S
O11          H34   0.963       .  S
C12          C38   1.487       .  S
C12          O29   1.270       .  A
C12          O21   1.273       .  A
O13         Ni32   1.932       .  S
O13          C19   1.272       .  A
O14         Ni32   1.893       .  S
O14          C16   1.270       .  A
Ni15         O18   1.942       .  S
Ni15         O20   1.891       .  S
C16         C493   1.493       .  S
C16          O26   1.283       .  A
O17         Ni33   1.911       .  S
O17          C23   1.268       .  A
O18          C23   1.271       .  A
C19         C461   1.472       .  S
O20          C22   1.266       .  A
O21         Ni32   1.946       .  S
C22         C429   1.468       .  S
C22          O28   1.275       .  A
C23          C49   1.475       .  S
H24          O25   0.966       .  S
O25         Ni33   1.928       .  S
O25         Ni27   1.913       .  S
O25         Ni32   1.926       .  S
O26         Ni27   1.965       .  S
Ni27         O31   1.905       .  S
Ni27         O29   1.924       .  S
O28         Ni33   1.947       .  S
C30         C621   1.490       .  S
C30          O31   1.272       .  A
O35         Ni41   1.919       .  S
O35         C704   1.269       .  A
O36         Ni59   1.894       .  S
O36          C45   1.264       .  A
O37         Ni41   1.921       .  S
O37         Ni59   1.899       .  S
O37        Ni701   1.918       .  S
O37          H60   0.964       .  S
C38          O55   1.270       .  A
C38          O47   1.272       .  A
O39        Ni706   1.937       .  S
O39          C45   1.273       .  A
O40         Ni58   1.896       .  S
O40          C42   1.270       .  A
Ni41         O44   1.939       .  S
Ni41         O46   1.896       .  S
C42         C589   1.493       .  S
C42          O52   1.282       .  A
O43         Ni59   1.914       .  S
O43          C49   1.269       .  A
O44          C49   1.271       .  A
C45         C333   1.484       .  S
O46          C48   1.268       .  A
O47         Ni58   1.948       .  S
C48         C365   1.475       .  S
C48          O54   1.277       .  A
H50          O51   0.966       .  S
O51         Ni53   1.908       .  S
O51         Ni58   1.923       .  S
O51        Ni707   1.924   1_545  S
O52         Ni53   1.964       .  S
Ni53         O57   1.897       .  S
Ni53         O55   1.923       .  S
Ni53        O685   1.912   1_545  S
O54         Ni59   1.949       .  S
C56         C406   1.487       .  S
C56          O57   1.270       .  A
C56         O683   1.269   1_545  A
Ni58        O687   1.930   1_545  S
Ni59        O699   1.922       .  S
C61          C62   1.414       .  A
C61          C66   1.392       .  A
C61         C397   1.470       .  S
C62          C63   1.405       .  A
C62         C502   1.488       .  S
C63          C64   1.407       .  A
C63          H68   1.084       .  S
C64          C65   1.418       .  A
C64         C269   1.479       .  S
C65          C66   1.392       .  A
C65         C310   1.483       .  S
C66          H67   1.085       .  S
O69         Ni75   1.931       .  S
O69          C90   1.274       .  A
O70         Ni93   1.892       .  S
O70          C79   1.266   1_655  A
O71         Ni75   1.924       .  S
O71         Ni93   1.900       .  S
O71         Ni87   1.926       .  S
O71          H94   0.966       .  S
C72          C98   1.480       .  S
C72          O89   1.268       .  A
C72          O81   1.273       .  A
O73         Ni92   1.927       .  S
O73          C79   1.273       .  A
O74         Ni92   1.890       .  S
O74          C76   1.268       .  A
Ni75         O78   1.959       .  S
Ni75         O80   1.892       .  S
C76         C278   1.475   1_554  S
C76          O86   1.277   1_455  A
O77         Ni93   1.913       .  S
O77          C83   1.267       .  A
O78          C83   1.274       .  A
C79         C246   1.473       .  S
O80          C82   1.267       .  A
O81         Ni92   1.947   1_655  S
C82         C214   1.469       .  S
C82          O88   1.279       .  A
C83         C109   1.485       .  S
H84          O85   0.966       .  S
O85         Ni93   1.922       .  S
O85         Ni87   1.899       .  S
O85         Ni92   1.921   1_655  S
O86         Ni87   1.944       .  S
Ni87         O91   1.887       .  S
Ni87         O89   1.915       .  S
O88         Ni93   1.949       .  S
C90         C566   1.470   1_554  S
C90          O91   1.265       .  A
O95        Ni101   1.926   1_456  S
O95         C764   1.272       .  A
O96        Ni119   1.900       .  S
O96         C105   1.268       .  A
O97        Ni101   1.921       .  S
O97        Ni119   1.903       .  S
O97        Ni761   1.926       .  S
O97         H120   0.966       .  S
C98         O115   1.269       .  A
C98         O107   1.270       .  A
O99        Ni766   1.928       .  S
O99         C105   1.274       .  A
O100       Ni118   1.898       .  S
O100        C102   1.272       .  A
Ni101       O104   1.943       .  S
Ni101       O106   1.897   1_655  S
C102        C534   1.484       .  S
C102        O112   1.280       .  A
O103       Ni119   1.930       .  S
O103        C109   1.272       .  A
O104        C109   1.272       .  A
C105        C141   1.490       .  S
O106        C108   1.269       .  A
O107       Ni118   1.943       .  S
C108        C182   1.480       .  S
C108        O114   1.279   1_455  A
H110        O111   0.966       .  S
O111       Ni113   1.897       .  S
O111       Ni118   1.916       .  S
O111       Ni767   1.932   1_545  S
O112       Ni113   1.950       .  S
Ni113       O117   1.895       .  S
Ni113       O115   1.922       .  S
Ni113       O745   1.927   1_545  S
O114       Ni119   1.953       .  S
C116        C301   1.467       .  S
C116        O117   1.267   1_456  A
C116        O743   1.271   1_546  A
Ni118       O747   1.916       .  S
Ni119       O759   1.931       .  S
C121        C122   1.412       .  A
C121        C126   1.390       .  A
C121        C470   1.472       .  S
C122        C123   1.406       .  A
C122        C374   1.480       .  S
C123        C124   1.408       .  A
C123        H128   1.084       .  S
C124        C125   1.415       .  A
C124        C173   1.484       .  S
C125        C126   1.390       .  A
C125        C237   1.473       .  S
C126        H127   1.085       .  S
C129        C130   1.414       .  A
C129        C134   1.393       .  A
C129        C342   1.478       .  S
C130        C131   1.401       .  A
C130        C438   1.478       .  S
C131        C132   1.401       .  A
C131        H136   1.084       .  S
C132        C133   1.417       .  A
C132        C205   1.475       .  S
C133        C134   1.396       .  A
C133        C150   1.482       .  S
C134        H135   1.085       .  S
C137        C138   1.399       .  A
C137        C142   1.403       .  A
C137        H147   1.081       .  S
C138        C139   1.408       .  A
C138        C143   1.484       .  S
C139        C140   1.402       .  A
C139        C144   1.507       .  S
C140        C141   1.410       .  A
C140        H145   1.083       .  S
C141        C142   1.421       .  A
C142        C146   1.509       .  S
C143        C148   1.418       .  A
C143        C152   1.402       .  A
C144        H160   1.111       .  S
C144        H161   1.108       .  S
C144        H162   1.111       .  S
C146        H157   1.110       .  S
C146        H158   1.111       .  S
C146        H159   1.110       .  S
C148        C149   1.398       .  A
C148        C153   1.509       .  S
C149        C150   1.399       .  A
C149        H154   1.084       .  S
C150        C151   1.413       .  A
C151        C152   1.406       .  A
C151        C155   1.506       .  S
C152        H156   1.084       .  S
C153        H163   1.110       .  S
C153        H164   1.110       .  S
C153        H165   1.107       .  S
C155        H166   1.111       .  S
C155        H167   1.108       .  S
C155        H168   1.109       .  S
C169        C170   1.404       .  A
C169        C174   1.405       .  A
C169        H179   1.084       .  S
C170        C171   1.416       .  A
C170        C175   1.485       .  S
C171        C172   1.400       .  A
C171        C176   1.509       .  S
C172        C173   1.402       .  A
C172        H177   1.085       .  S
C173        C174   1.415       .  A
C174        C178   1.506       .  S
C175        C180   1.414       .  A
C175        C184   1.400       .  A
C176        H192   1.106       .  S
C176        H193   1.110       .  S
C176        H194   1.111       .  S
C178        H189   1.110       .  S
C178        H190   1.110       .  S
C178        H191   1.107       .  S
C180        C181   1.404       .  A
C180        C185   1.504       .  S
C181        C182   1.403       .  A
C181        H186   1.084       .  S
C182        C183   1.418       .  A
C183        C184   1.404       .  A
C183        C187   1.509       .  S
C184        H188   1.084       .  S
C185        H195   1.111       .  S
C185        H196   1.109       .  S
C185        H197   1.105       .  S
C187        H198   1.111       .  S
C187        H199   1.111       .  S
C187        H200   1.109       .  S
C201        C202   1.403       .  A
C201        C206   1.401       .  A
C201        H211   1.084       .  S
C202        C203   1.412       .  A
C202        C207   1.478       .  S
C203        C204   1.400       .  A
C203        C208   1.507       .  S
C204        C205   1.401       .  A
C204        H209   1.084       .  S
C205        C206   1.411       .  A
C206        C210   1.505       .  S
C207        C212   1.414       .  A
C207        C216   1.400       .  A
C208        H224   1.110       .  S
C208        H225   1.110       .  S
C208        H226   1.111       .  S
C210        H221   1.110       .  S
C210        H222   1.110       .  S
C210        H223   1.109       .  S
C212        C213   1.397       .  A
C212        C217   1.500       .  S
C213        C214   1.395       .  A
C213        H218   1.085       .  S
C214        C215   1.418       .  A
C215        C216   1.403       .  A
C215        C219   1.507       .  S
C216        H220   1.084       .  S
C217        H227   1.110       .  S
C217        H228   1.105       .  S
C217        H229   1.107       .  S
C219        H230   1.111       .  S
C219        H231   1.107       .  S
C219        H232   1.110       .  S
C233        C234   1.401       .  A
C233        C238   1.398       .  A
C233        H243   1.084       .  S
C234        C235   1.412       .  A
C234        C239   1.476       .  S
C235        C236   1.400       .  A
C235        C240   1.507       .  S
C236        C237   1.400       .  A
C236        H241   1.084       .  S
C237        C238   1.412       .  A
C238        C242   1.507       .  S
C239        C244   1.410       .  A
C239        C248   1.400       .  A
C240        H256   1.109       .  S
C240        H257   1.110       .  S
C240        H258   1.111       .  S
C242        H253   1.110       .  S
C242        H254   1.110       .  S
C242        H255   1.108       .  S
C244        C245   1.402       .  A
C244        C249   1.507       .  S
C245        C246   1.404       .  A
C245        H250   1.084       .  S
C246        C247   1.416       .  A
C247        C248   1.398       .  A
C247        C251   1.509       .  S
C248        H252   1.084       .  S
C249        H259   1.111       .  S
C249        H260   1.109       .  S
C249        H261   1.110       .  S
C251        H262   1.111       .  S
C251        H263   1.109       .  S
C251        H264   1.110       .  S
C265        C266   1.400       .  A
C265        C270   1.396       .  A
C265        H275   1.085       .  S
C266        C267   1.410       .  A
C266        C271   1.477       .  S
C267        C268   1.406       .  A
C267        C272   1.505       .  S
C268        C269   1.404       .  A
C268        H273   1.084       .  S
C269        C270   1.413       .  A
C270        C274   1.508       .  S
C271        C276   1.417       .  A
C271        C280   1.399       .  A
C272        H288   1.110       .  S
C272        H289   1.109       .  S
C272        H290   1.111       .  S
C274        H285   1.110       .  S
C274        H286   1.110       .  S
C274        H287   1.109       .  S
C276        C277   1.402       .  A
C276        C281   1.507       .  S
C277        C278   1.402       .  A
C277        H282   1.085   1_455  S
C278        C279   1.417       .  A
C279        C280   1.399       .  A
C279        C283   1.510   1_556  S
C280        H284   1.085       .  S
C281        H291   1.110       .  S
C281        H292   1.105       .  S
C281        H293   1.110       .  S
C283        H294   1.110       .  S
C283        H295   1.108       .  S
C283        H296   1.111       .  S
C297        C298   1.400       .  A
C297        C950   1.402       .  A
C297        H955   1.084       .  S
C298        C299   1.410       .  A
C298        C303   1.473       .  S
C299        C300   1.398       .  A
C299        C304   1.508       .  S
C300        C301   1.402       .  A
C300        H305   1.085       .  S
C301        C950   1.416       .  A
C302        C945   1.402       .  A
C302        C949   1.416       .  A
C302        C306   1.507       .  S
C303        C308   1.408       .  A
C303        C312   1.400       .  A
C304        H320   1.106       .  S
C304        H321   1.109       .  S
C304        H322   1.111       .  S
C306        H317   1.110       .  S
C306        H318   1.110   1_455  S
C306        H319   1.108   1_455  S
H307        C945   1.084       .  S
C308        C309   1.400       .  A
C308        C313   1.507       .  S
C309        C310   1.405       .  A
C309        H314   1.084       .  S
C310        C311   1.415       .  A
C311        C312   1.401       .  A
C311        C315   1.506       .  S
C312        H316   1.084       .  S
C313        H323   1.111       .  S
C313        H324   1.110       .  S
C313        H325   1.109       .  S
C315        H326   1.110       .  S
C315        H327   1.108       .  S
C315        H328   1.109       .  S
C329        C330   1.398       .  A
C329        C334   1.399       .  A
C329        H339   1.084       .  S
C330        C331   1.413       .  A
C330        C335   1.479       .  S
C331        C332   1.405       .  A
C331        C336   1.507       .  S
C332        C333   1.407       .  A
C332        H337   1.084       .  S
C333        C334   1.419       .  A
C334        C338   1.508       .  S
C335        C340   1.412       .  A
C335        C344   1.401       .  A
C336        H352   1.110       .  S
C336        H353   1.108       .  S
C336        H354   1.110       .  S
C338        H349   1.111       .  S
C338        H350   1.109       .  S
C338        H351   1.110       .  S
C340        C341   1.402       .  A
C340        C345   1.506       .  S
C341        C342   1.401       .  A
C341        H346   1.084       .  S
C342        C343   1.414       .  A
C343        C344   1.401       .  A
C343        C347   1.507       .  S
C344        H348   1.084       .  S
C345        H355   1.111       .  S
C345        H356   1.109       .  S
C345        H357   1.110       .  S
C347        H358   1.110       .  S
C347        H359   1.110       .  S
C347        H360   1.108       .  S
C361        C362   1.403       .  A
C361        C366   1.403       .  A
C361        H371   1.085       .  S
C362        C363   1.410       .  A
C362        C367   1.482       .  S
C363        C364   1.403       .  A
C363        C368   1.507       .  S
C364        C365   1.405       .  A
C364        H369   1.084       .  S
C365        C366   1.416       .  A
C366        C370   1.508       .  S
C367        C372   1.412       .  A
C367        C376   1.402       .  A
C368        H384   1.109       .  S
C368        H385   1.111       .  S
C368        H386   1.111       .  S
C370        H381   1.110       .  S
C370        H382   1.107       .  S
C370        H383   1.105       .  S
C372        C373   1.405       .  A
C372        C377   1.505       .  S
C373        C374   1.402       .  A
C373        H378   1.084       .  S
C374        C375   1.414       .  A
C375        C376   1.399       .  A
C375        C379   1.507       .  S
C376        H380   1.085       .  S
C377        H387   1.111       .  S
C377        H388   1.109       .  S
C377        H389   1.110       .  S
C379        H390   1.110       .  S
C379        H391   1.109       .  S
C379        H392   1.110       .  S
C393        C394   1.399       .  A
C393        C398   1.398       .  A
C393        H403   1.084       .  S
C394        C395   1.411       .  A
C394        C399   1.471       .  S
C395        C396   1.399       .  A
C395        C400   1.507       .  S
C396        C397   1.399       .  A
C396        H401   1.084       .  S
C397        C398   1.415       .  A
C398        C402   1.508       .  S
C399        C404   1.407       .  A
C399        C408   1.395       .  A
C400        H416   1.110       .  S
C400        H417   1.110       .  S
C400        H418   1.111       .  S
C402        H413   1.110       .  S
C402        H414   1.110       .  S
C402        H415   1.108       .  S
C404        C405   1.396       .  A
C404        C409   1.503       .  S
C405        C406   1.407       .  A
C405        H410   1.083       .  S
C406       C1055   1.427       .  A
C407       C1054   1.428       .  A
C407       C1056   1.404       .  A
C407        C411   1.509       .  S
C408       C1055   1.401       .  A
C408       H1060   1.085       .  S
C409        H419   1.111       .  S
C409        H420   1.107       .  S
C409        H421   1.107       .  S
C411        H422   1.111       .  S
C411        H423   1.110       .  S
C411        H424   1.110       .  S
H412       C1056   1.084       .  S
C425        C426   1.399       .  A
C425        C430   1.401       .  A
C425        H435   1.084       .  S
C426        C427   1.412       .  A
C426        C431   1.475       .  S
C427        C428   1.402       .  A
C427        C432   1.507       .  S
C428        C429   1.401       .  A
C428        H433   1.084       .  S
C429        C430   1.414       .  A
C430        C434   1.508       .  S
C431        C436   1.411       .  A
C431        C440   1.401       .  A
C432        H448   1.110       .  S
C432        H449   1.109       .  S
C432        H450   1.111       .  S
C434        H445   1.109       .  S
C434        H446   1.111       .  S
C434        H447   1.110       .  S
C436        C437   1.396       .  A
C436        C441   1.508       .  S
C437        C438   1.400       .  A
C437        H442   1.084       .  S
C438        C439   1.417       .  A
C439        C440   1.403       .  A
C439        C443   1.507       .  S
C440        H444   1.084       .  S
C441        H451   1.111       .  S
C441        H452   1.109       .  S
C441        H453   1.111       .  S
C443        H454   1.110       .  S
C443        H455   1.110       .  S
C443        H456   1.106       .  S
C457        C458   1.397       .  A
C457        C462   1.397       .  A
C457        H467   1.085       .  S
C458        C459   1.411       .  A
C458        C463   1.472       .  S
C459        C460   1.403       .  A
C459        C464   1.506       .  S
C460        C461   1.403       .  A
C460        H465   1.084       .  S
C461        C462   1.417       .  A
C462        C466   1.508       .  S
C463        C468   1.411       .  A
C463        C472   1.401       .  A
C464        H480   1.110       .  S
C464        H481   1.110       .  S
C464        H482   1.111       .  S
C466        H477   1.111       .  S
C466        H478   1.107       .  S
C466        H479   1.110       .  S
C468        C469   1.398       .  A
C468        C473   1.507       .  S
C469        C470   1.400       .  A
C469        H474   1.084       .  S
C470        C471   1.412       .  A
C471        C472   1.399       .  A
C471        C475   1.507       .  S
C472        H476   1.084       .  S
C473        H483   1.111       .  S
C473        H484   1.109       .  S
C473        H485   1.110       .  S
C475        H486   1.110       .  S
C475        H487   1.108       .  S
C475        H488   1.110       .  S
C489        C490   1.406       .  A
C489        C494   1.411       .  A
C489        H499   1.084       .  S
C490        C491   1.417       .  A
C490        C495   1.498       .  S
C491        C492   1.401       .  A
C491        C496   1.509       .  S
C492        C493   1.405       .  A
C492        H497   1.084       .  S
C493        C494   1.417       .  A
C494        C498   1.503       .  S
C495        C500   1.421       .  A
C495        C504   1.409       .  A
C496        H512   1.108       .  S
C496        H513   1.107       .  S
C496        H514   1.111       .  S
C498        H509   1.111       .  S
C498        H510   1.107       .  S
C498        H511   1.110       .  S
C500        C501   1.403       .  A
C500        C505   1.508       .  S
C501        C502   1.399       .  A
C501        H506   1.082       .  S
C502        C503   1.409       .  A
C503        C504   1.407       .  A
C503        C507   1.505       .  S
C504        H508   1.083       .  S
C505        H515   1.110       .  S
C505        H516   1.103       .  S
C505        H517   1.110       .  S
C507        H518   1.110       .  S
C507        H519   1.110       .  S
C507        H520   1.111       .  S
C521        C522   1.402       .  A
C521        C526   1.404       .  A
C521        H531   1.084   1_545  S
C522        C523   1.415       .  A
C522        C527   1.481       .  S
C523        C524   1.400       .  A
C523        C528   1.509       .  S
C524        C525   1.403       .  A
C524        H529   1.084       .  S
C525        C526   1.415       .  A
C526        C530   1.505   1_545  S
C527        C532   1.409   1_545  A
C527        C536   1.402       .  A
C528        H544   1.107   1_556  S
C528        H545   1.110   1_556  S
C528        H546   1.111       .  S
C530        H541   1.110       .  S
C530        H542   1.110   1_565  S
C530        H543   1.104   1_565  S
C532        C533   1.402   1_556  A
C532        C537   1.507   1_556  S
C533        C534   1.408   1_565  A
C533        H538   1.084       .  S
C534        C535   1.418   1_554  A
C535        C536   1.405       .  A
C535        C539   1.509       .  S
C536        H540   1.083       .  S
C537        H547   1.111       .  S
C537        H548   1.110   1_554  S
C537        H549   1.108       .  S
C539        H550   1.110       .  S
C539        H551   1.108       .  S
C539        H552   1.111       .  S
C553        C554   1.399       .  A
C553        C558   1.396       .  A
C553        H563   1.085       .  S
C554        C555   1.409       .  A
C554        C559   1.470       .  S
C555        C556   1.402       .  A
C555        C560   1.506       .  S
C556        C557   1.404       .  A
C556        H561   1.084       .  S
C557        C558   1.413       .  A
C558        C562   1.508       .  S
C559        C564   1.409       .  A
C559        C568   1.398       .  A
C560        H576   1.109       .  S
C560        H577   1.109       .  S
C560        H578   1.111       .  S
C562        H573   1.110       .  S
C562        H574   1.110       .  S
C562        H575   1.107       .  S
C564        C565   1.403       .  A
C564        C569   1.506       .  S
C565        C566   1.404       .  A
C565        H570   1.084       .  S
C566        C567   1.418       .  A
C567        C568   1.397       .  A
C567        C571   1.511   1_556  S
C568        H572   1.085       .  S
C569        H579   1.111       .  S
C569        H580   1.110       .  S
C569        H581   1.109       .  S
C571        H582   1.111       .  S
C571        H583   1.105       .  S
C571        H584   1.107       .  S
C585        C586   1.406   1_565  A
C585        C590   1.412       .  A
C585        H595   1.084       .  S
C586        C587   1.418       .  A
C586        C591   1.497       .  S
C587        C588   1.400       .  A
C587        C592   1.510       .  S
C588        C589   1.404       .  A
C588        H593   1.084       .  S
C589        C590   1.418   1_545  A
C590       C1242   1.504       .  S
C591        C596   1.421       .  A
C591        C600   1.405   1_545  A
C592        H608   1.107       .  S
C592        H609   1.107       .  S
C592        H610   1.111       .  S
C594       C1238   1.505       .  S
C594        H605   1.110       .  S
C594        H606   1.111       .  S
C594        H607   1.106       .  S
C596        C597   1.406       .  A
C596        C601   1.508       .  S
C597        C598   1.403       .  A
C597        H602   1.082       .  S
C598        C599   1.414       .  A
C599        C600   1.402   1_545  A
C599        C603   1.506   1_545  S
C600        H604   1.084       .  S
C601        H611   1.111       .  S
C601        H612   1.110       .  S
C601        H613   1.104       .  S
C603        H614   1.110       .  S
C603        H615   1.103   1_565  S
C603        H616   1.111   1_565  S
C617        C618   1.396       .  A
C617        C622   1.403       .  A
C617        H627   1.085       .  S
C618        C619   1.410       .  A
C618        C623   1.473       .  S
C619        C620   1.397       .  A
C619        C624   1.503       .  S
C620        C621   1.405       .  A
C620        H625   1.084       .  S
C621        C622   1.428       .  A
C622        C626   1.510       .  S
C623        C628   1.410       .  A
C623        C632   1.400       .  A
C624        H640   1.110       .  S
C624        H641   1.106       .  S
C624        H642   1.107       .  S
C626        H637   1.110       .  S
C626        H638   1.111       .  S
C626        H639   1.110       .  S
C628        C629   1.400       .  A
C628        C633   1.506       .  S
C629        C630   1.400       .  A
C629        H634   1.084       .  S
C630        C631   1.415       .  A
C631        C632   1.400       .  A
C631        C635   1.508       .  S
C632        H636   1.084       .  S
C633        H643   1.111       .  S
C633        H644   1.110       .  S
C633        H645   1.109       .  S
C635        H646   1.110       .  S
C635        H647   1.108       .  S
C635        H648   1.110       .  S
C649        C650   1.416       .  A
C649        C654   1.391       .  A
C649       C1278   1.476       .  S
C650        C651   1.408       .  A
C650       C1246   1.484       .  S
C651        C652   1.407       .  A
C651        H656   1.084       .  S
C652        C653   1.416       .  A
C652       C1173   1.488       .  S
C653        C654   1.392       .  A
C653       C1205   1.477       .  S
C654        H655   1.085       .  S
O657       Ni663   1.920       .  S
O657        C678   1.269       .  A
O658       Ni681   1.888       .  S
O658        C667   1.263       .  A
O659       Ni663   1.918       .  S
O659       Ni681   1.895       .  S
O659       Ni675   1.915       .  S
O659        H682   0.962       .  S
C660        C686   1.485       .  S
C660        O677   1.270       .  A
C660        O669   1.274       .  A
O661       Ni680   1.933       .  S
O661        C667   1.271       .  A
O662       Ni680   1.890       .  S
O662        C664   1.268       .  A
Ni663       O666   1.940       .  S
Ni663       O668   1.892       .  S
C664       C1141   1.486       .  S
C664        O674   1.277       .  A
O665       Ni681   1.908       .  S
O665        C671   1.266       .  A
O666        C671   1.272       .  A
C667       C1109   1.469       .  S
O668        C670   1.267       .  A
O669       Ni680   1.946       .  S
C670       C1077   1.478       .  S
C670        O676   1.278       .  A
C671        C697   1.473       .  S
H672        O673   0.966       .  S
O673       Ni681   1.924       .  S
O673       Ni675   1.914       .  S
O673       Ni680   1.928       .  S
O674       Ni675   1.948       .  S
Ni675       O679   1.897       .  S
Ni675       O677   1.920       .  S
O676       Ni681   1.953       .  S
C678       C1269   1.486       .  S
C678        O679   1.269       .  A
O683       Ni689   1.917       .  S
O684       Ni707   1.880       .  S
O684        C693   1.260       .  A
O685       Ni689   1.918       .  S
O685       Ni707   1.894       .  S
O685        H708   0.964       .  S
C686        O703   1.272       .  A
C686        O695   1.274       .  A
O687        C693   1.273       .  A
O688       Ni706   1.895       .  S
O688        C690   1.270       .  A
Ni689       O692   1.942       .  S
Ni689       O694   1.894       .  S
C690       C1237   1.497       .  S
C690        O700   1.278       .  A
O691       Ni707   1.908       .  S
O691        C697   1.267       .  A
O692        C697   1.272       .  A
C693        C981   1.478       .  S
O694        C696   1.266       .  A
O695       Ni706   1.943       .  S
C696       C1013   1.471       .  S
C696        O702   1.274       .  A
H698        O699   0.966       .  S
O699       Ni701   1.916       .  S
O699       Ni706   1.926       .  S
O700       Ni701   1.953       .  S
Ni701       O705   1.904       .  S
Ni701       O703   1.924       .  S
O702       Ni707   1.947       .  S
C704       C1054   1.492       .  S
C704        O705   1.271       .  A
C709        C710   1.415       .  A
C709        C714   1.391       .  A
C709       C1045   1.474       .  S
C710        C711   1.403       .  A
C710       C1150   1.477       .  S
C711        C712   1.401       .  A
C711        H716   1.084       .  S
C712        C713   1.415       .  A
C712        C917   1.478       .  S
C713        C714   1.392       .  A
C713        C958   1.476       .  S
C714        H715   1.085       .  S
O717       Ni723   1.933       .  S
O717        C738   1.275       .  A
O718       Ni741   1.882       .  S
O718        C727   1.262   1_655  A
O719       Ni723   1.923       .  S
O719       Ni741   1.896       .  S
O719       Ni735   1.926       .  S
O719        H742   0.966       .  S
C720        C746   1.485       .  S
C720        O737   1.268       .  A
C720        O729   1.275       .  A
O721       Ni740   1.935       .  S
O721        C727   1.275       .  A
O722       Ni740   1.897       .  S
O722        C724   1.269       .  A
Ni723       O726   1.962       .  S
Ni723       O728   1.903       .  S
C724        C926   1.482   1_554  S
C724        O734   1.278   1_455  A
O725       Ni741   1.912       .  S
O725        C731   1.268       .  A
O726        C731   1.275       .  A
C727        C894   1.474       .  S
O728        C730   1.270       .  A
O729       Ni740   1.954   1_655  S
C730        C862   1.472       .  S
C730        O736   1.276       .  A
C731        C757   1.487       .  S
H732        O733   0.966       .  S
O733       Ni741   1.921       .  S
O733       Ni735   1.896       .  S
O733       Ni740   1.922   1_655  S
O734       Ni735   1.947       .  S
Ni735       O739   1.886       .  S
Ni735       O737   1.917       .  S
O736       Ni741   1.942       .  S
C738       C1214   1.472   1_554  S
C738        O739   1.264       .  A
O743       Ni749   1.920   1_455  S
O744       Ni767   1.904       .  S
O744        C753   1.269       .  A
O745       Ni749   1.918       .  S
O745       Ni767   1.903       .  S
O745        H768   0.966       .  S
C746        O763   1.268       .  A
C746        O755   1.273       .  A
O747        C753   1.272   1_545  A
O748       Ni766   1.897       .  S
O748        C750   1.271       .  A
Ni749       O752   1.940       .  S
Ni749       O754   1.895   1_655  S
C750       C1182   1.494       .  S
C750        O760   1.280       .  A
O751       Ni767   1.934       .  S
O751        C757   1.273       .  A
O752        C757   1.271       .  A
C753        C789   1.483       .  S
O754        C756   1.268       .  A
O755       Ni766   1.950       .  S
C756        C830   1.479       .  S
C756        O762   1.279   1_455  A
H758        O759   0.966       .  S
O759       Ni761   1.901       .  S
O759       Ni766   1.920       .  S
O760       Ni761   1.954       .  S
Ni761       O765   1.894       .  S
Ni761       O763   1.923       .  S
O762       Ni767   1.945       .  S
C764        C949   1.469       .  S
C764        O765   1.266   1_456  A
C769        C770   1.414       .  A
C769        C774   1.390       .  A
C769       C1118   1.474       .  S
C770        C771   1.401       .  A
C770       C1022   1.473       .  S
C771        C772   1.402       .  A
C771        H776   1.084       .  S
C772        C773   1.415       .  A
C772        C821   1.477       .  S
C773        C774   1.389       .  A
C773        C885   1.472       .  S
C774        H775   1.085       .  S
C777        C778   1.414       .  A
C777        C782   1.390       .  A
C777        C990   1.472       .  S
C778        C779   1.406       .  A
C778       C1086   1.487       .  S
C779        C780   1.407       .  A
C779        H784   1.084       .  S
C780        C781   1.416       .  A
C780        C853   1.479       .  S
C781        C782   1.392       .  A
C781        C798   1.480       .  S
C782        H783   1.085       .  S
C785        C786   1.399       .  A
C785        C790   1.403       .  A
C785        H795   1.082       .  S
C786        C787   1.407       .  A
C786        C791   1.477       .  S
C787        C788   1.398       .  A
C787        C792   1.508       .  S
C788        C789   1.409       .  A
C788        H793   1.084       .  S
C789        C790   1.419       .  A
C790        C794   1.509       .  S
C791        C796   1.416       .  A
C791        C800   1.401       .  A
C792        H808   1.110       .  S
C792        H809   1.108       .  S
C792        H810   1.111       .  S
C794        H805   1.109       .  S
C794        H806   1.111       .  S
C794        H807   1.110       .  S
C796        C797   1.396       .  A
C796        C801   1.509       .  S
C797        C798   1.398       .  A
C797        H802   1.083       .  S
C798        C799   1.414       .  A
C799        C800   1.405       .  A
C799        C803   1.507       .  S
C800        H804   1.084       .  S
C801        H811   1.110       .  S
C801        H812   1.110       .  S
C801        H813   1.107       .  S
C803        H814   1.111       .  S
C803        H815   1.108       .  S
C803        H816   1.109       .  S
C817        C818   1.403       .  A
C817        C822   1.403       .  A
C817        H827   1.084       .  S
C818        C819   1.415       .  A
C818        C823   1.477       .  S
C819        C820   1.396       .  A
C819        C824   1.510       .  S
C820        C821   1.400       .  A
C820        H825   1.085       .  S
C821        C822   1.413       .  A
C822        C826   1.506       .  S
C823        C828   1.411       .  A
C823        C832   1.399       .  A
C824        H840   1.106       .  S
C824        H841   1.110       .  S
C824        H842   1.110       .  S
C826        H837   1.110       .  S
C826        H838   1.110   1_565  S
C826        H839   1.107       .  S
C828        C829   1.400       .  A
C828        C833   1.505       .  S
C829        C830   1.404       .  A
C829        H834   1.084       .  S
C830        C831   1.420       .  A
C831        C832   1.402       .  A
C831        C835   1.509   1_565  S
C832        H836   1.084   1_565  S
C833        H843   1.111       .  S
C833        H844   1.109       .  S
C833        H845   1.106       .  S
C835        H846   1.111       .  S
C835        H847   1.110       .  S
C835        H848   1.109   1_545  S
C849        C850   1.405       .  A
C849        C854   1.405       .  A
C849        H859   1.084       .  S
C850        C851   1.414       .  A
C850        C855   1.484       .  S
C851        C852   1.400       .  A
C851        C856   1.508       .  S
C852        C853   1.400       .  A
C852        H857   1.084       .  S
C853        C854   1.413       .  A
C854        C858   1.505       .  S
C855        C860   1.415       .  A
C855        C864   1.403       .  A
C856        H872   1.109       .  S
C856        H873   1.110       .  S
C856        H874   1.111       .  S
C858        H869   1.110       .  S
C858        H870   1.110       .  S
C858        H871   1.109       .  S
C860        C861   1.399       .  A
C860        C865   1.502       .  S
C861        C862   1.397       .  A
C861        H866   1.085       .  S
C862        C863   1.416       .  A
C863        C864   1.404       .  A
C863        C867   1.508       .  S
C864        H868   1.084       .  S
C865        H875   1.110       .  S
C865        H876   1.105       .  S
C865        H877   1.107       .  S
C867        H878   1.110       .  S
C867        H879   1.108       .  S
C867        H880   1.110       .  S
C881        C882   1.400       .  A
C881        C886   1.399       .  A
C881        H891   1.085       .  S
C882        C883   1.408       .  A
C882        C887   1.469       .  S
C883        C884   1.397       .  A
C883        C888   1.507       .  S
C884        C885   1.401       .  A
C884        H889   1.084       .  S
C885        C886   1.412       .  A
C886        C890   1.506       .  S
C887        C892   1.407       .  A
C887        C896   1.398       .  A
C888        H904   1.110       .  S
C888        H905   1.110       .  S
C888        H906   1.111       .  S
C890        H901   1.110       .  S
C890        H902   1.110       .  S
C890        H903   1.108       .  S
C892        C893   1.400       .  A
C892        C897   1.506       .  S
C893        C894   1.404       .  A
C893        H898   1.084       .  S
C894        C895   1.420       .  A
C895        C896   1.399       .  A
C895        C899   1.510       .  S
C896        H900   1.084       .  S
C897        H907   1.111       .  S
C897        H908   1.110       .  S
C897        H909   1.110       .  S
C899        H910   1.111       .  S
C899        H911   1.110       .  S
C899        H912   1.110       .  S
C913        C914   1.400       .  A
C913        C918   1.393       .  A
C913        H923   1.085       .  S
C914        C915   1.412       .  A
C914        C919   1.478       .  S
C915        C916   1.407       .  A
C915        C920   1.505       .  S
C916        C917   1.405       .  A
C916        H921   1.084       .  S
C917        C918   1.412       .  A
C918        C922   1.508       .  S
C919        C924   1.416       .  A
C919        C928   1.399       .  A
C920        H936   1.110       .  S
C920        H937   1.109       .  S
C920        H938   1.111       .  S
C922        H933   1.110       .  S
C922        H934   1.110       .  S
C922        H935   1.108       .  S
C924        C925   1.404       .  A
C924        C929   1.509       .  S
C925        C926   1.405       .  A
C925        H930   1.084   1_455  S
C926        C927   1.419       .  A
C927        C928   1.399       .  A
C927        C931   1.510   1_556  S
C928        H932   1.085       .  S
C929        H939   1.110       .  S
C929        H940   1.107       .  S
C929        H941   1.110       .  S
C931        H942   1.111       .  S
C931        H943   1.107       .  S
C931        H944   1.111       .  S
C945        C946   1.399       .  A
C946        C947   1.410       .  A
C946        C951   1.470       .  S
C947        C948   1.398       .  A
C947        C952   1.509       .  S
C948        C949   1.403       .  A
C948        H953   1.085       .  S
C950        C954   1.508   1_545  S
C951        C956   1.409       .  A
C951        C960   1.400       .  A
C952        H968   1.105       .  S
C952        H969   1.108       .  S
C952        H970   1.111       .  S
C954        H965   1.110       .  S
C954        H966   1.110       .  S
C954        H967   1.108   1_455  S
C956        C957   1.397       .  A
C956        C961   1.508       .  S
C957        C958   1.402       .  A
C957        H962   1.084       .  S
C958        C959   1.414       .  A
C959        C960   1.400       .  A
C959        C963   1.507       .  S
C960        H964   1.084       .  S
C961        H971   1.111       .  S
C961        H972   1.110       .  S
C961        H973   1.108       .  S
C963        H974   1.110       .  S
C963        H975   1.109       .  S
C963        H976   1.110       .  S
C977        C978   1.396       .  A
C977        C982   1.396       .  A
C977        H987   1.084       .  S
C978        C979   1.409       .  A
C978        C983   1.467       .  S
C979        C980   1.400       .  A
C979        C984   1.507       .  S
C980        C981   1.406       .  A
C980        H985   1.084   1_565  S
C981        C982   1.422       .  A
C982        C986   1.510       .  S
C983        C988   1.408       .  A
C983        C992   1.399       .  A
C984       H1000   1.110       .  S
C984       H1001   1.109       .  S
C984       H1002   1.111   1_565  S
C986        H997   1.111       .  S
C986        H998   1.110       .  S
C986        H999   1.110       .  S
C988        C989   1.397       .  A
C988        C993   1.506       .  S
C989        C990   1.401       .  A
C989        H994   1.084       .  S
C990        C991   1.413       .  A
C991        C992   1.398       .  A
C991        C995   1.506       .  S
C992        H996   1.085       .  S
C993       H1003   1.111       .  S
C993       H1004   1.110       .  S
C993       H1005   1.110       .  S
C995       H1006   1.110       .  S
C995       H1007   1.110       .  S
C995       H1008   1.108       .  S
C1009      C1010   1.404       .  A
C1009      C1014   1.403       .  A
C1009      H1019   1.085       .  S
C1010      C1011   1.410   1_565  A
C1010      C1015   1.479       .  S
C1011      C1012   1.401   1_545  A
C1011      C1016   1.507       .  S
C1012      C1013   1.403       .  A
C1012      H1017   1.085   1_565  S
C1013      C1014   1.415       .  A
C1014      C1018   1.507       .  S
C1015      C1020   1.411       .  A
C1015      C1024   1.403       .  A
C1016      H1032   1.109       .  S
C1016      H1033   1.110       .  S
C1016      H1034   1.111       .  S
C1018      H1029   1.110       .  S
C1018      H1030   1.107       .  S
C1018      H1031   1.106       .  S
C1020      C1021   1.403       .  A
C1020      C1025   1.506       .  S
C1021      C1022   1.401       .  A
C1021      H1026   1.084       .  S
C1022      C1023   1.409       .  A
C1023      C1024   1.397       .  A
C1023      C1027   1.507       .  S
C1024      H1028   1.084       .  S
C1025      H1035   1.111       .  S
C1025      H1036   1.109       .  S
C1025      H1037   1.110   1_565  S
C1027      H1038   1.110       .  S
C1027      H1039   1.109       .  S
C1027      H1040   1.111       .  S
C1041      C1042   1.400       .  A
C1041      C1046   1.401       .  A
C1041      H1051   1.084       .  S
C1042      C1043   1.411       .  A
C1042      C1047   1.476       .  S
C1043      C1044   1.401       .  A
C1043      C1048   1.507       .  S
C1044      C1045   1.400       .  A
C1044      H1049   1.084       .  S
C1045      C1046   1.415       .  A
C1046      C1050   1.508       .  S
C1047      C1052   1.407       .  A
C1047      C1056   1.396       .  A
C1048      H1064   1.110       .  S
C1048      H1065   1.110       .  S
C1048      H1066   1.111       .  S
C1050      H1061   1.110       .  S
C1050      H1062   1.110       .  S
C1050      H1063   1.108       .  S
C1052      C1053   1.398       .  A
C1052      C1057   1.503       .  S
C1053      C1054   1.407       .  A
C1053      H1058   1.083       .  S
C1055      C1059   1.510   1_545  S
C1057      H1067   1.111       .  S
C1057      H1068   1.109       .  S
C1057      H1069   1.106       .  S
C1059      H1070   1.111       .  S
C1059      H1071   1.110       .  S
C1059      H1072   1.110       .  S
C1073      C1074   1.400       .  A
C1073      C1078   1.402       .  A
C1073      H1083   1.084       .  S
C1074      C1075   1.414       .  A
C1074      C1079   1.485       .  S
C1075      C1076   1.406       .  A
C1075      C1080   1.507       .  S
C1076      C1077   1.404       .  A
C1076      H1081   1.084       .  S
C1077      C1078   1.417       .  A
C1078      C1082   1.509       .  S
C1079      C1084   1.413       .  A
C1079      C1088   1.403       .  A
C1080      H1096   1.110       .  S
C1080      H1097   1.109       .  S
C1080      H1098   1.111       .  S
C1082      H1093   1.109       .  S
C1082      H1094   1.111       .  S
C1082      H1095   1.111       .  S
C1084      C1085   1.398       .  A
C1084      C1089   1.509       .  S
C1085      C1086   1.402       .  A
C1085      H1090   1.084       .  S
C1086      C1087   1.417       .  A
C1087      C1088   1.408       .  A
C1087      C1091   1.506       .  S
C1088      H1092   1.084       .  S
C1089      H1099   1.111       .  S
C1089      H1100   1.109       .  S
C1089      H1101   1.111       .  S
C1091      H1102   1.110       .  S
C1091      H1103   1.110       .  S
C1091      H1104   1.107       .  S
C1105      C1106   1.399       .  A
C1105      C1110   1.397       .  A
C1105      H1115   1.085       .  S
C1106      C1107   1.413       .  A
C1106      C1111   1.477       .  S
C1107      C1108   1.403       .  A
C1107      C1112   1.507       .  S
C1108      C1109   1.401       .  A
C1108      H1113   1.084       .  S
C1109      C1110   1.416       .  A
C1110      C1114   1.509       .  S
C1111      C1116   1.413       .  A
C1111      C1120   1.401       .  A
C1112      H1128   1.109       .  S
C1112      H1129   1.110       .  S
C1112      H1130   1.111       .  S
C1114      H1125   1.111       .  S
C1114      H1126   1.110       .  S
C1114      H1127   1.106       .  S
C1116      C1117   1.400       .  A
C1116      C1121   1.507       .  S
C1117      C1118   1.401       .  A
C1117      H1122   1.084       .  S
C1118      C1119   1.413       .  A
C1119      C1120   1.398       .  A
C1119      C1123   1.507       .  S
C1120      H1124   1.084       .  S
C1121      H1131   1.111       .  S
C1121      H1132   1.108       .  S
C1121      H1133   1.111       .  S
C1123      H1134   1.110       .  S
C1123      H1135   1.108       .  S
C1123      H1136   1.110       .  S
C1137      C1138   1.402       .  A
C1137      C1142   1.406       .  A
C1137      H1147   1.083       .  S
C1138      C1139   1.416       .  A
C1138      C1143   1.487       .  S
C1139      C1140   1.397       .  A
C1139      C1144   1.510       .  S
C1140      C1141   1.404       .  A
C1140      H1145   1.084       .  S
C1141      C1142   1.418       .  A
C1142      C1146   1.504       .  S
C1143      C1148   1.416       .  A
C1143      C1152   1.404       .  A
C1144      H1160   1.108       .  S
C1144      H1161   1.107       .  S
C1144      H1162   1.111       .  S
C1146      H1157   1.111       .  S
C1146      H1158   1.106       .  S
C1146      H1159   1.109       .  S
C1148      C1149   1.400       .  A
C1148      C1153   1.507       .  S
C1149      C1150   1.400       .  A
C1149      H1154   1.083       .  S
C1150      C1151   1.411       .  A
C1151      C1152   1.401       .  A
C1151      C1155   1.507       .  S
C1152      H1156   1.084       .  S
C1153      H1163   1.109       .  S
C1153      H1164   1.106       .  S
C1153      H1165   1.111       .  S
C1155      H1166   1.109       .  S
C1155      H1167   1.110       .  S
C1155      H1168   1.111       .  S
C1169      C1170   1.403       .  A
C1169      C1174   1.405       .  A
C1169      H1179   1.085       .  S
C1170      C1171   1.414       .  A
C1170      C1175   1.483       .  S
C1171      C1172   1.399       .  A
C1171      C1176   1.509       .  S
C1172      C1173   1.404       .  A
C1172      H1177   1.084       .  S
C1173      C1174   1.416       .  A
C1174      C1178   1.506       .  S
C1175      C1180   1.408   1_556  A
C1175      C1184   1.401       .  A
C1176      H1192   1.107   1_556  S
C1176      H1193   1.110   1_556  S
C1176      H1194   1.111       .  S
C1178      H1189   1.110       .  S
C1178      H1190   1.110       .  S
C1178      H1191   1.104       .  S
C1180      C1181   1.403       .  A
C1180      C1185   1.508       .  S
C1181      C1182   1.411       .  A
C1181      H1186   1.084       .  S
C1182      C1183   1.421   1_554  A
C1183      C1184   1.405       .  A
C1183      C1187   1.508       .  S
C1184      H1188   1.083       .  S
C1185      H1195   1.111       .  S
C1185      H1196   1.110       .  S
C1185      H1197   1.108       .  S
C1187      H1198   1.110       .  S
C1187      H1199   1.109       .  S
C1187      H1200   1.111       .  S
C1201      C1202   1.399       .  A
C1201      C1206   1.397       .  A
C1201      H1211   1.085       .  S
C1202      C1203   1.408       .  A
C1202      C1207   1.471       .  S
C1203      C1204   1.401       .  A
C1203      C1208   1.506       .  S
C1204      C1205   1.403       .  A
C1204      H1209   1.084       .  S
C1205      C1206   1.416       .  A
C1206      C1210   1.509       .  S
C1207      C1212   1.408       .  A
C1207      C1216   1.399       .  A
C1208      H1224   1.109       .  S
C1208      H1225   1.110       .  S
C1208      H1226   1.111       .  S
C1210      H1221   1.110       .  S
C1210      H1222   1.110       .  S
C1210      H1223   1.106       .  S
C1212      C1213   1.402       .  A
C1212      C1217   1.506       .  S
C1213      C1214   1.404       .  A
C1213      H1218   1.084       .  S
C1214      C1215   1.417       .  A
C1215      C1216   1.399       .  A
C1215      C1219   1.509   1_556  S
C1216      H1220   1.085       .  S
C1217      H1227   1.111       .  S
C1217      H1228   1.110       .  S
C1217      H1229   1.110       .  S
C1219      H1230   1.111       .  S
C1219      H1231   1.111       .  S
C1219      H1232   1.109       .  S
C1233      C1234   1.404       .  A
C1233      C1238   1.411       .  A
C1233      H1243   1.084       .  S
C1234      C1235   1.417       .  A
C1234      C1239   1.494       .  S
C1235      C1236   1.398       .  A
C1235      C1240   1.510       .  S
C1236      C1237   1.406       .  A
C1236      H1241   1.084       .  S
C1237      C1238   1.421       .  A
C1239      C1244   1.421       .  A
C1239      C1248   1.405       .  A
C1240      H1256   1.108       .  S
C1240      H1257   1.106       .  S
C1240      H1258   1.110       .  S
C1242      H1253   1.111       .  S
C1242      H1254   1.108       .  S
C1242      H1255   1.109       .  S
C1244      C1245   1.403       .  A
C1244      C1249   1.508       .  S
C1245      C1246   1.401       .  A
C1245      H1250   1.082       .  S
C1246      C1247   1.413       .  A
C1247      C1248   1.402       .  A
C1247      C1251   1.507       .  S
C1248      H1252   1.084       .  S
C1249      H1259   1.111       .  S
C1249      H1260   1.110       .  S
C1249      H1261   1.102       .  S
C1251      H1262   1.110       .  S
C1251      H1263   1.104       .  S
C1251      H1264   1.111       .  S
C1265      C1266   1.397       .  A
C1265      C1270   1.403       .  A
C1265      H1275   1.084       .  S
C1266      C1267   1.409       .  A
C1266      C1271   1.473       .  S
C1267      C1268   1.396       .  A
C1267      C1272   1.502       .  S
C1268      C1269   1.405       .  A
C1268      H1273   1.084       .  S
C1269      C1270   1.424       .  A
C1270      C1274   1.509       .  S
C1271      C1276   1.410       .  A
C1271      C1280   1.397       .  A
C1272      H1288   1.110       .  S
C1272      H1289   1.106       .  S
C1272      H1290   1.106       .  S
C1274      H1285   1.109       .  S
C1274      H1286   1.111       .  S
C1274      H1287   1.111       .  S
C1276      C1277   1.403       .  A
C1276      C1281   1.507       .  S
C1277      C1278   1.401       .  A
C1277      H1282   1.084       .  S
C1278      C1279   1.416       .  A
C1279      C1280   1.398       .  A
C1279      C1283   1.508       .  S
C1280      H1284   1.084       .  S
C1281      H1291   1.111       .  S
C1281      H1292   1.110       .  S
C1281      H1293   1.110       .  S
C1283      H1294   1.110       .  S
C1283      H1295   1.108       .  S
C1283      H1296   1.110       .  S
