geometry optimzed in LAMMPS
_audit_creation_date              2020-11-30 
_audit_creation_method            'lammps2cif' 
_symmetry_space_group_name_H-M    'P1' 
_symmetry_Int_Tables_number       1 
_symmetry_cell_setting            triclinic 
loop_ 
_symmetry_equiv_pos_as_xyz 
  x,y,z 
_cell_length_a                    42.44615662 
_cell_length_b                    43.03284808771804 
_cell_length_c                    42.753765881045595 
_cell_angle_alpha                 89.65283566193179 
_cell_angle_beta                  90.09052340237088 
_cell_angle_gamma                 90.87061188023016 
loop_ 
_atom_site_label 
_atom_site_type_symbol 
_atom_site_fract_x 
_atom_site_fract_y 
_atom_site_fract_z 
_atom_site_charge 
O1          O  0.52967548  0.04250409  0.83454151    -0.86100
O2          O  0.52578579  0.04578364  0.65605327    -0.86300
O3          O  0.59115575  0.03432840  0.73788735    -0.87900
O4          O  0.52012159  0.10559076  0.75079509    -0.86700
O5          O  0.46622635  0.10626277  0.75147608    -0.86300
O6          O  0.58977296  0.98111857  0.73852415    -0.87600
O7          O  0.55216372  0.07230508  0.69448437    -0.86100
O8          O  0.55859162  0.06598228  0.79530283    -0.85700
Zr9        Zr  0.53662392  0.05162214  0.74504691     2.84300
O10         O  0.49150014  0.05292301  0.71337280    -1.07700
O11         O  0.53618229  0.00726525  0.77704958    -1.08400
C12         C  0.55218359  0.06058096  0.82431831     1.07000
C13         C  0.54575612  0.06673352  0.66557387     1.07000
C14         C  0.60439270  0.00752194  0.73517365     1.09900
C15         C  0.49366081  0.11979993  0.75376236     1.07700
H16         H  0.55294589  0.00825378  0.69932717     0.33300
O17         O  0.53489425  0.00796119  0.71302758    -1.28600
H18         H  0.49281775  0.06920692  0.79089997     0.33000
O19         O  0.49221601  0.05129938  0.77743051    -1.30300
O20         O  0.45464849  0.97031983  0.65637576    -0.86100
O21         O  0.45066228  0.97312863  0.83407981    -0.87600
O22         O  0.55102461  0.94497080  0.69380938    -0.86200
O23         O  0.42849354  0.07167191  0.69606632    -0.86200
O24         O  0.42688459  0.06845186  0.79547589    -0.85900
O25         O  0.55617510  0.94662845  0.79485779    -0.85700
O26         O  0.46306333  0.90916340  0.74854604    -0.86100
O27         O  0.39162896  0.98125519  0.74358904    -0.85600
O28         O  0.51704854  0.90942211  0.74667369    -0.86600
O29         O  0.39233304  0.03450722  0.74488379    -0.85800
O30         O  0.52713565  0.97450696  0.65579207    -0.86200
O31         O  0.52840068  0.97073138  0.83358918    -0.85900
O32         O  0.45561747  0.04434569  0.83405138    -0.85600
O33         O  0.45387538  0.04557445  0.65693660    -0.86000
O34         O  0.42811239  0.94332337  0.69486202    -0.86300
O35         O  0.42284655  0.94786059  0.79556745    -0.87600
Zr36       Zr  0.48985415  0.00856465  0.68157118     2.83100
Zr37       Zr  0.49126213  0.00700603  0.80938761     2.83500
Zr38       Zr  0.53499069  0.96354619  0.74479663     2.84100
Zr39       Zr  0.44722241  0.05210437  0.74580336     2.83400
Zr40       Zr  0.44559218  0.96317609  0.74546607     2.84200
O41         O  0.44660947  0.00734447  0.77716897    -1.08200
O42         O  0.48992945  0.96363916  0.71313335    -1.07700
C43         C  0.43487705  0.94905901  0.66589968     1.07000
C44         C  0.42823061  0.95459191  0.82449144     1.09600
C45         C  0.54609129  0.95315299  0.66516921     1.07200
C46         C  0.43413930  0.06579991  0.66712948     1.07500
C47         C  0.43434727  0.06340221  0.82418155     1.07100
C48         C  0.54991155  0.95202383  0.82385769     1.06700
C49         C  0.48998024  0.89538653  0.74853727     1.07100
C50         C  0.37796536  0.00787357  0.74344248     1.06600
H51         H  0.49026922  0.94450675  0.79058738     0.33300
O52         O  0.49049947  0.96285111  0.77741094    -1.29300
H53         H  0.42685075  0.00801914  0.70077009     0.33300
O54         O  0.44550058  0.00795403  0.71382044    -1.30600
C55         C  0.64524724  0.20546959  0.49739560    -0.02100
O56         O  0.55469020  0.08203420  0.29288460    -0.86100
O57         O  0.42982149  0.95379833  0.29783569    -0.86300
O58         O  0.45713776  0.05393814  0.33252512    -0.87900
O59         O  0.52893419  0.98141829  0.33560112    -0.86700
O60         O  0.55530888  0.95393533  0.29830314    -0.86300
O61         O  0.43216104  0.07963523  0.29247011    -0.87600
O62         O  0.45513865  0.98296702  0.33507965    -0.86100
O63         O  0.52906962  0.05606512  0.33235336    -0.85700
Zr64       Zr  0.49357435  0.01715206  0.30884101     2.84300
O65         O  0.49392951  0.97131474  0.27907237    -1.07700
O66         O  0.49372705  0.06027605  0.27520898    -1.08400
C67         C  0.54858735  0.07717037  0.32197751     1.07000
C68         C  0.43454811  0.96223405  0.32646972     1.07000
C69         C  0.43789496  0.07437403  0.32157177     1.09900
C70         C  0.54873775  0.96061718  0.32692046     1.07700
H71         H  0.43083761  0.01528511  0.28991856     0.33300
O72         O  0.44918225  0.01496132  0.27681359    -1.28600
H73         H  0.55697839  0.01787366  0.29077401     0.33000
O74         O  0.53859198  0.01712762  0.27733431    -1.30300
O75         O  0.43038506  0.95098651  0.19656838    -0.86100
O76         O  0.56028926  0.07530899  0.19318226    -0.87600
O77         O  0.39447157  0.03896672  0.24941519    -0.86200
O78         O  0.52199275  0.91745467  0.24565178    -0.86200
O79         O  0.59335879  0.99084523  0.24976779    -0.85900
O80         O  0.46645827  0.11193559  0.24066155    -0.85700
O81         O  0.45637689  0.04870832  0.15482427    -0.86100
O82         O  0.52879044  0.97452217  0.15788843    -0.85600
O83         O  0.42860249  0.07283405  0.19333246    -0.86600
O84         O  0.55709082  0.95203494  0.19766749    -0.85800
O85         O  0.39469153  0.98580567  0.24909434    -0.86200
O86         O  0.52042982  0.11373241  0.24009424    -0.85900
O87         O  0.59343127  0.04402934  0.24858357    -0.85600
O88         O  0.46786236  0.91637087  0.24421437    -0.86000
O89         O  0.45645619  0.97715960  0.15706017    -0.86300
O90         O  0.53428479  0.04735237  0.15526224    -0.87600
Zr91       Zr  0.44943936  0.96993631  0.24660569     2.83100
Zr92       Zr  0.53854629  0.06010983  0.24347823     2.83500
Zr93       Zr  0.44903853  0.05782683  0.24349504     2.84100
Zr94       Zr  0.53873107  0.97204423  0.24712248     2.83400
Zr95       Zr  0.49412394  0.01372096  0.18091169     2.84200
O96         O  0.53909013  0.01504531  0.21316383    -1.08200
O97         O  0.44895906  0.01307474  0.21284415    -1.07700
C98         C  0.43625271  0.95676061  0.16748798     1.07000
C99         C  0.55561221  0.06724621  0.16452935     1.09600
C100        C  0.38054920  0.01205748  0.25153639     1.07200
C101        C  0.49505493  0.90324941  0.24337422     1.07500
C102        C  0.60752641  0.01764120  0.25078716     1.07100
C103        C  0.49313838  0.12666805  0.23899510     1.06700
C104        C  0.43470232  0.06736796  0.16443716     1.07100
C105        C  0.54950988  0.95528647  0.16861036     1.06600
H106        H  0.49373916  0.07673653  0.19765558     0.33300
O107        O  0.49379156  0.05877364  0.21132073    -1.29300
H108        H  0.49409379  0.95217498  0.20249774     0.33300
O109        O  0.49416212  0.97082535  0.21496105    -1.30600
C110        C  0.30033549  0.85860330  0.00458551    -0.02100
C111        C  0.67853800  0.85422462  0.99927491    -0.02100
C112        C  0.64981843  0.82764169  0.49476037    -0.02100
C113        C  0.30877733  0.16774459  0.99284338    -0.02100
C114        C  0.68927766  0.16442750  0.98942093    -0.02100
C115        C  0.34088189  0.19689056  0.49500270    -0.02100
C116        C  0.33891935  0.81906102  0.49079689    -0.02100
O117        O  0.89161447  0.75835081  0.47478226    -0.86100
O118        O  0.02465182  0.75071591  0.59342654    -0.86300
O119        O  0.93433349  0.70373813  0.56059231    -0.87900
O120        O  0.93216119  0.80161814  0.56433824    -0.86700
O121        O  0.95568067  0.84153967  0.53720296    -0.86300
O122        O  0.96140798  0.66644915  0.53384577    -0.87600
O123        O  0.97077878  0.74897548  0.59559682    -0.86100
O124        O  0.89507492  0.75749287  0.52833882    -0.85700
Zr125      Zr  0.95075161  0.75400574  0.54243657     2.84300
O126        O  0.99450907  0.78773946  0.54265324    -1.07700
O127        O  0.94809782  0.72306141  0.49768774    -1.08400
C128        C  0.87941939  0.75983072  0.50247965     1.07000
C129        C  0.99834227  0.74739066  0.60831557     1.07000
C130        C  0.94202147  0.67556836  0.55511123     1.09900
C131        C  0.93659471  0.83064718  0.55843573     1.07700
H132        H  0.99736326  0.71051353  0.55763527     0.33300
O133        O  0.99598516  0.72414693  0.53964106    -1.28600
H134        H  0.92951839  0.79883112  0.50068056     0.33000
O135        O  0.94809156  0.78641413  0.49905478    -1.30300
O136        O  0.09308091  0.76063374  0.51893899    -0.86100
O137        O  0.96048300  0.75542131  0.39880338    -0.87600
O138        O  0.03383653  0.66985296  0.52931630    -0.86200
O139        O  0.02893145  0.84568802  0.53376518    -0.86200
O140        O  0.95135365  0.84446840  0.46703442    -0.85900
O141        O  0.95453869  0.66758159  0.46140753    -0.85700
O142        O  0.05631621  0.71091571  0.43086650    -0.86100
O143        O  0.05223447  0.81033482  0.43194279    -0.85600
O144        O  0.03096886  0.67135517  0.45733822    -0.86600
O145        O  0.02560223  0.84690175  0.46008501    -0.85800
O146        O  0.06258442  0.70875952  0.55319018    -0.86200
O147        O  0.92481664  0.70531782  0.43834908    -0.85900
O148        O  0.92472955  0.80674732  0.43970464    -0.85600
O149        O  0.05731158  0.80798578  0.55857380    -0.86000
O150        O  0.09052239  0.76159786  0.46522165    -0.86300
O151        O  0.01447179  0.75841009  0.39609907    -0.87600
Zr152      Zr  0.03966748  0.75767035  0.53871263     2.83100
Zr153      Zr  0.94545423  0.75609187  0.45404177     2.83500
Zr154      Zr  0.99411598  0.69345257  0.49484952     2.84100
Zr155      Zr  0.99180691  0.81977444  0.49826395     2.83400
Zr156      Zr  0.03506958  0.75938691  0.44968929     2.84200
O157        O  0.98966328  0.78959032  0.45246642    -1.08200
O158        O  0.03801926  0.72707276  0.49360077    -1.07700
C159        C  0.10555463  0.76219347  0.49152115     1.07000
C160        C  0.98678637  0.75602356  0.38351708     1.09600
C161        C  0.05602030  0.68002137  0.54768271     1.07200
C162        C  0.05014677  0.83663064  0.55346221     1.07500
C163        C  0.92952375  0.83525750  0.44798522     1.07100
C164        C  0.93165318  0.67654915  0.44354080     1.06700
C165        C  0.05121923  0.68191981  0.43711911     1.07100
C166        C  0.04552952  0.83855635  0.43891626     1.06600
H167        H  0.99029203  0.71330599  0.43235471     0.33300
O168        O  0.99095663  0.72601627  0.45093087    -1.29300
H169        H  0.05549078  0.80368622  0.49432336     0.33300
O170        O  0.03718218  0.79003231  0.49483544    -1.30600
O171        O  0.89418588  0.25659109  0.47651902    -0.86100
O172        O  0.02252336  0.27071289  0.60026859    -0.86300
O173        O  0.93264027  0.21294171  0.57022391    -0.87900
O174        O  0.92850602  0.31233404  0.56133071    -0.86700
O175        O  0.95758826  0.35064831  0.53644031    -0.86300
O176        O  0.95738542  0.17427443  0.54320554    -0.87600
O177        O  0.96855540  0.27043452  0.59986528    -0.86100
O178        O  0.89493845  0.25686395  0.53016397    -0.85700
Zr179      Zr  0.94948691  0.26235373  0.54692364     2.84300
O180        O  0.99424810  0.29474022  0.54566921    -1.07700
O181        O  0.94815131  0.22957278  0.50361062    -1.08400
C182        C  0.88066620  0.25530478  0.50351841     1.07000
C183        C  0.99541453  0.27287885  0.61387000     1.07000
C184        C  0.93846765  0.18414561  0.56457989     1.09900
C185        C  0.93557771  0.34094322  0.55516214     1.07700
H186        H  0.99456425  0.21934489  0.56737868     0.33300
O187        O  0.99419378  0.23134165  0.54817314    -1.28600
H188        H  0.92983168  0.30468705  0.50093704     0.33000
O189        O  0.94871963  0.29245534  0.50121127    -1.30300
O190        O  0.09290361  0.25685901  0.52734520    -0.86100
O191        O  0.96538403  0.26116375  0.40290246    -0.87600
O192        O  0.03053123  0.17468612  0.53905580    -0.86200
O193        O  0.03456832  0.35150261  0.53342101    -0.86200
O194        O  0.95435745  0.34788748  0.46376643    -0.85900
O195        O  0.95371085  0.17199108  0.47141844    -0.85700
O196        O  0.05417290  0.21023802  0.43950706    -0.86100
O197        O  0.05176516  0.31127721  0.43423835    -0.85600
O198        O  0.02877900  0.17256453  0.46864035    -0.86600
O199        O  0.02465899  0.34954313  0.45901286    -0.85800
O200        O  0.05644668  0.21358556  0.56527801    -0.86200
O201        O  0.92770329  0.20843122  0.44254944    -0.85900
O202        O  0.92832897  0.30819013  0.43827033    -0.85600
O203        O  0.06179929  0.31388754  0.55986026    -0.86000
O204        O  0.09241881  0.25743366  0.47368357    -0.86300
O205        O  0.01940375  0.26300181  0.40255613    -0.87600
Zr206      Zr  0.03906036  0.26374823  0.54580717     2.83100
Zr207      Zr  0.94815188  0.25934152  0.45774444     2.83500
Zr208      Zr  0.99266056  0.19862452  0.50426400     2.84100
Zr209      Zr  0.99357819  0.32527429  0.50024107     2.83400
Zr210      Zr  0.03732677  0.26096805  0.45678950     2.84200
O211        O  0.99267363  0.29174299  0.45720238    -1.08200
O212        O  0.03728187  0.23112088  0.50245099    -1.07700
C213        C  0.10653729  0.25485001  0.50042544     1.07000
C214        C  0.99229064  0.26351981  0.38877481     1.09600
C215        C  0.05102795  0.18467065  0.55911031     1.07200
C216        C  0.05653327  0.34253976  0.55271271     1.07500
C217        C  0.93394155  0.33718854  0.44362981     1.07100
C218        C  0.93276755  0.18007698  0.45107266     1.06700
C219        C  0.04853675  0.18165877  0.44730415     1.07100
C220        C  0.04363949  0.33987800  0.43778007     1.06600
H221        H  0.99214677  0.21483348  0.43967303     0.33300
O222        O  0.99264117  0.22813300  0.45774593    -1.29300
H223        H  0.05782933  0.30697658  0.49872075     0.33300
O224        O  0.03897334  0.29425390  0.50002298    -1.30600
C225        C  0.80993220  0.51597566  0.64793516    -0.02100
C226        C  0.18891408  0.51492732  0.65552035    -0.02100
C227        C  0.83909702  0.00638399  0.31749343    -0.02100
C228        C  0.84123913  0.00283700  0.68805322    -0.02100
C229        C  0.80374408  0.50405805  0.33822501    -0.02100
C230        C  0.17914110  0.50864951  0.34124304    -0.02100
C231        C  0.14799509  0.01469113  0.31480689    -0.02100
C232        C  0.14395670  0.01040166  0.68751675    -0.02100
O233        O  0.73948748  0.61043552  0.96551608    -0.86100
O234        O  0.74982305  0.48298216  0.08893459    -0.86300
O235        O  0.69631996  0.57317918  0.05591763    -0.87900
O236        O  0.79888559  0.57168131  0.05124377    -0.86700
O237        O  0.83523754  0.54413108  0.02373587    -0.86300
O238        O  0.65625165  0.54834096  0.02912526    -0.87600
O239        O  0.75205611  0.53616323  0.08938122    -0.86100
O240        O  0.74213835  0.60909034  0.01892732    -0.85700
Zr241      Zr  0.74617541  0.55484546  0.03548565     2.84300
O242        O  0.77618129  0.51000528  0.03309732    -1.07700
O243        O  0.71323927  0.55606557  0.99170302    -1.08400
C244        C  0.73862724  0.62364195  0.99265434     1.07000
C245        C  0.75342514  0.50928985  0.10301064     1.07000
C246        C  0.66697034  0.56761728  0.04990159     1.09900
C247        C  0.82748185  0.56440867  0.04429801     1.07700
H248        H  0.69964709  0.51167139  0.05474315     0.33300
O249        O  0.71212120  0.51152502  0.03574383    -1.28600
H250        H  0.79051965  0.57391903  0.99047075     0.33000
O251        O  0.77724002  0.55551174  0.99028652    -1.30300
O252        O  0.73457293  0.41322340  0.01801671    -0.86100
O253        O  0.74816448  0.53910935  0.89289013    -0.87600
O254        O  0.65285741  0.47727098  0.02669819    -0.86200
O255        O  0.83204932  0.47458188  0.02569461    -0.86200
O256        O  0.83272938  0.54954359  0.95269827    -0.85900
O257        O  0.65500879  0.55197427  0.95806736    -0.85700
O258        O  0.68971977  0.45347041  0.92480675    -0.86100
O259        O  0.78955422  0.44506161  0.92848299    -0.85600
O260        O  0.65185696  0.47926866  0.95186664    -0.86600
O261        O  0.83023135  0.47273104  0.95100325    -0.85800
O262        O  0.69036330  0.45195327  0.05542075    -0.86200
O263        O  0.69377746  0.57579883  0.92902676    -0.85900
O264        O  0.79413698  0.57884820  0.92997487    -0.85600
O265        O  0.79361366  0.44720874  0.05224773    -0.86000
O266        O  0.73188170  0.41402330  0.96463117    -0.86300
O267        O  0.74684502  0.48582391  0.89228135    -0.87600
Zr268      Zr  0.74250388  0.46662624  0.03487716     2.83100
Zr269      Zr  0.74408555  0.55682289  0.94674881     2.83500
Zr270      Zr  0.67940932  0.51272568  0.99097327     2.84100
Zr271      Zr  0.80743159  0.51009718  0.98784207     2.83400
Zr272      Zr  0.74072001  0.46762032  0.94600914     2.84200
O273        O  0.77402154  0.51155163  0.94468250    -1.08200
O274        O  0.70955430  0.46767580  0.99088949    -1.07700
C275        C  0.73012810  0.39983030  0.99138810     1.07000
C276        C  0.74962929  0.51266433  0.87879942     1.09600
C277        C  0.66143952  0.45849455  0.04860423     1.07200
C278        C  0.82279724  0.45400606  0.04614098     1.07500
C279        C  0.82326621  0.57231597  0.93497562     1.07100
C280        C  0.66481985  0.57170215  0.93721287     1.06700
C281        C  0.66074322  0.46020086  0.93018101     1.07100
C282        C  0.81907118  0.45095624  0.93304571     1.06600
H283        H  0.69774373  0.51384582  0.92725986     0.33300
O284        O  0.71068928  0.51297925  0.94586761    -1.29300
H285        H  0.78588142  0.44713893  0.98953567     0.33300
O286        O  0.77385968  0.46598212  0.98965855    -1.30600
O287        O  0.25344259  0.60990901  0.97351281    -0.86100
O288        O  0.24281953  0.48281990  0.09801573    -0.86300
O289        O  0.19788179  0.57614720  0.06044232    -0.87900
O290        O  0.29971570  0.57054741  0.06427122    -0.86700
O291        O  0.33733876  0.54460641  0.03678445    -0.86300
O292        O  0.15779214  0.55084731  0.03456757    -0.87600
O293        O  0.24580057  0.53600637  0.09773488    -0.86100
O294        O  0.25479318  0.60905506  0.02705268    -0.85700
Zr295      Zr  0.24795405  0.55486746  0.04405560     2.84300
O296        O  0.27769352  0.50955573  0.04390877    -1.07700
O297        O  0.21493467  0.55634276  0.00007011    -1.08400
C298        C  0.25685835  0.62332432  0.00038968     1.07000
C299        C  0.24317862  0.50948405  0.11181573     1.07000
C300        C  0.16847023  0.57163608  0.05388917     1.09900
C301        C  0.32872046  0.56428125  0.05789262     1.07700
H302        H  0.20070029  0.51171596  0.06218078     0.33300
O303        O  0.21361065  0.51145950  0.04419779    -1.28600
H304        H  0.29376182  0.57248987  0.99962007     0.33000
O305        O  0.27959615  0.55462573  0.99953197    -1.30300
O306        O  0.24668422  0.41201716  0.02572950    -0.86100
O307        O  0.23997139  0.53929133  0.90108132    -0.87600
O308        O  0.15382453  0.47626482  0.03552882    -0.86200
O309        O  0.33326706  0.47135298  0.03504603    -0.86200
O310        O  0.33668386  0.54627122  0.96321242    -0.85900
O311        O  0.15670094  0.54752137  0.96224977    -0.85700
O312        O  0.19374977  0.44915241  0.93718063    -0.86100
O313        O  0.29383973  0.45253073  0.93220325    -0.85600
O314        O  0.15561956  0.47708089  0.96172568    -0.86600
O315        O  0.33393532  0.47544721  0.96043563    -0.85800
O316        O  0.19134244  0.44794120  0.06091367    -0.86200
O317        O  0.19616509  0.57633851  0.93854842    -0.85900
O318        O  0.29823932  0.57097056  0.93544838    -0.85600
O319        O  0.29320667  0.44718392  0.06230090    -0.86000
O320        O  0.24776297  0.41311112  0.97216049    -0.86300
O321        O  0.23855960  0.48599517  0.90157277    -0.87600
Zr322      Zr  0.24342281  0.46608955  0.04353927     2.83100
Zr323      Zr  0.24678242  0.55611480  0.95545991     2.83500
Zr324      Zr  0.18128993  0.51223330  0.99976783     2.84100
Zr325      Zr  0.31014943  0.50985230  0.99940600     2.83400
Zr326      Zr  0.24432238  0.46756953  0.95524020     2.84200
O327        O  0.27766840  0.51135647  0.95482178    -1.08200
O328        O  0.21125387  0.46666929  0.99915788    -1.07700
C329        C  0.24901351  0.39864446  0.99876645     1.07000
C330        C  0.23645153  0.51259635  0.88758602     1.09600
C331        C  0.16234018  0.45503442  0.05525645     1.07200
C332        C  0.32252694  0.45170898  0.05568903     1.07500
C333        C  0.32733510  0.56573362  0.94198427     1.07100
C334        C  0.16697255  0.56879147  0.94318750     1.06700
C335        C  0.16484619  0.45642240  0.94187285     1.07100
C336        C  0.32317238  0.45798094  0.93812041     1.06600
H337        H  0.20012630  0.51261041  0.93778087     0.33300
O338        O  0.21376988  0.51224679  0.95595094    -1.29300
H339        H  0.28916668  0.44791662  0.99902534     0.33300
O340        O  0.27628192  0.46643051  0.99946362    -1.30600
C341        C  0.00185419  0.70463716  0.84386350    -0.02100
C342        C  0.99631588  0.31709383  0.84978813    -0.02100
C343        C  0.49631699  0.66223090  0.79903751    -0.02100
C344        C  0.50287648  0.67288499  0.18717558    -0.02100
C345        C  0.98774948  0.31916499  0.15474464    -0.02100
C346        C  0.99350373  0.69846561  0.15140377    -0.02100
C347        C  0.48794422  0.35368263  0.80161545    -0.02100
C348        C  0.49022748  0.35808816  0.18624325    -0.02100
O349        O  0.55285095  0.43989706  0.53298891    -0.86100
O350        O  0.46391553  0.50642263  0.39353882    -0.86300
O351        O  0.47494181  0.41732997  0.46072109    -0.87900
O352        O  0.56183280  0.46507951  0.43011792    -0.86700
O353        O  0.58390500  0.51328120  0.43962369    -0.86300
O354        O  0.43554201  0.42920456  0.49509692    -0.87600
O355        O  0.49393030  0.46330653  0.40282595    -0.86100
O356        O  0.54127791  0.42517257  0.48278606    -0.85700
Zr357      Zr  0.51071437  0.46342203  0.45708525     2.84300
O358        O  0.51322535  0.51484246  0.43955833    -1.07700
O359        O  0.49420040  0.46131008  0.50933250    -1.08400
C360        C  0.55342106  0.42052663  0.50986583     1.07000
C361        C  0.47749321  0.48116234  0.38505524     1.07000
C362        C  0.44938592  0.41064386  0.47624908     1.09900
C363        C  0.58440986  0.48556532  0.42822135     1.07700
H364        H  0.44628457  0.47184750  0.44692503     0.33300
O365        O  0.46042044  0.48398022  0.46004413    -1.28600
H366        H  0.56659252  0.48307247  0.48854948     0.33000
O367        O  0.54583826  0.49194452  0.48889735    -1.30300
O368        O  0.43789191  0.58666978  0.44923038    -0.86100
O369        O  0.52932104  0.52307098  0.58793389    -0.87600
O370        O  0.39594272  0.48734489  0.48098379    -0.86200
O371        O  0.54410303  0.57122834  0.42107124    -0.86200
O372        O  0.59522880  0.54018274  0.50462292    -0.85900
O373        O  0.44972190  0.45393158  0.56359485    -0.85700
O374        O  0.42680824  0.55867486  0.55277896    -0.86100
O375        O  0.51350202  0.60852166  0.52304828    -0.85600
O376        O  0.40802261  0.50902891  0.54517962    -0.86600
O377        O  0.55409928  0.59611466  0.49030778    -0.85800
O378        O  0.40824203  0.51952909  0.43953980    -0.86200
O379        O  0.50149852  0.45927172  0.57838891    -0.85900
O380        O  0.58252938  0.50871909  0.54645400    -0.85600
O381        O  0.49244727  0.56721220  0.40499962    -0.86000
O382        O  0.44874560  0.60263169  0.49933108    -0.86300
O383        O  0.49855744  0.56517210  0.57698253    -0.87600
Zr384      Zr  0.46280834  0.53576994  0.44235302     2.83100
Zr385      Zr  0.52843910  0.49106527  0.54058944     2.83500
Zr386      Zr  0.44385402  0.48182804  0.51252223     2.84100
Zr387      Zr  0.54791191  0.54342444  0.47125715     2.83400
Zr388      Zr  0.47823861  0.56270786  0.52493191     2.84200
O389        O  0.52919684  0.54240509  0.52263399    -1.08200
O390        O  0.44425369  0.53329364  0.49386149    -1.07700
C391        C  0.43686704  0.60642583  0.47194566     1.07000
C392        C  0.51668587  0.54932212  0.59487104     1.09600
C393        C  0.38909062  0.50211372  0.45545749     1.07200
C394        C  0.52129598  0.57646639  0.40169204     1.07500
C395        C  0.60166235  0.52640191  0.53086629     1.07100
C396        C  0.47322784  0.44907122  0.58253379     1.06700
C397        C  0.40609356  0.53641718  0.55672162     1.07100
C398        C  0.53954599  0.61497532  0.50847912     1.06600
H399        H  0.47023237  0.51137849  0.56516405     0.33300
O400        O  0.47764334  0.51160150  0.54380695    -1.29300
H401        H  0.49826633  0.58576516  0.46598178     0.33300
O402        O  0.49733801  0.56458948  0.47355914    -1.30600
O403        O  0.06136143  0.95029807  0.05307658    -0.86100
O404        O  0.01394862  0.03617819  0.90613992    -0.86300
O405        O  0.03892213  0.93566895  0.94943637    -0.87900
O406        O  0.09425487  0.01940486  0.97551162    -0.86700
O407        O  0.08526187  0.05973707  0.00914309    -0.86300
O408        O  0.98651161  0.92206755  0.95256705    -0.87600
O409        O  0.05345624  0.00302859  0.92025600    -0.86100
O410        O  0.08084479  0.95595158  0.00316181    -0.85700
Zr411      Zr  0.04539074  0.98744269  0.97357464     2.84300
O412        O  0.02968040  0.03919766  0.97298984    -1.07700
O413        O  0.00990016  0.95794333  0.00349429    -1.08400
C414        C  0.08257313  0.94640235  0.03160705     1.07000
C415        C  0.03940081  0.02087548  0.90065779     1.07000
C416        C  0.01528179  0.91668817  0.94515807     1.09900
C417        C  0.10309968  0.04400005  0.99079560     1.07700
H418        H  0.99511448  0.98220398  0.93011242     0.33300
O419        O  0.99498937  0.99032629  0.95115822    -1.28600
H420        H  0.06638100  0.00600726  0.03408431     0.33000
O421        O  0.04559479  0.00655554  0.02493606    -1.30300
O422        O  0.92990916  0.07267675  0.95490048    -0.86100
O423        O  0.97406241  0.98153085  0.10008527    -0.87600
O424        O  0.93225828  0.96885977  0.93011628    -0.86200
O425        O  0.03218742  0.10430637  0.98965045    -0.86200
O426        O  0.05053418  0.05206283  0.07816168    -0.85900
O427        O  0.96040840  0.91364012  0.01399301    -0.85700
O428        O  0.89324150  0.00252350  0.02500393    -0.86100
O429        O  0.95158893  0.08188896  0.06046057    -0.85600
O430        O  0.90480112  0.95973463  0.99577518    -0.86600
O431        O  0.00352804  0.09660082  0.05485688    -0.85800
O432        O  0.94403907  0.01863017  0.91421182    -0.86200
O433        O  0.99092787  0.92380644  0.05738169    -0.85900
O434        O  0.03703394  0.00311287  0.09587003    -0.85600
O435        O  0.00234158  0.09310513  0.94613611    -0.86000
O436        O  0.91043731  0.06739935  0.00481739    -0.86300
O437        O  0.93610732  0.01593876  0.08562596    -0.87600
Zr438      Zr  0.97906222  0.04224819  0.95152242     2.83100
Zr439      Zr  0.00967553  0.97674888  0.05463490     2.83500
Zr440      Zr  0.95948497  0.96120027  0.98144875     2.84100
Zr441      Zr  0.02985152  0.05824159  0.02412760     2.83400
Zr442      Zr  0.94357793  0.03201214  0.03239812     2.84200
O443        O  0.99408350  0.02855835  0.05367760    -1.08200
O444        O  0.94365193  0.01289216  0.98139259    -1.07700
C445        C  0.90942892  0.07798951  0.97672461     1.07000
C446        C  0.94920972  0.99780909  0.10562304     1.09600
C447        C  0.92998790  0.99219770  0.91071504     1.07200
C448        C  0.02046824  0.11093455  0.96243741     1.07500
C449        C  0.04921340  0.03032161  0.09938266     1.07100
C450        C  0.97371577  0.90593956  0.04018324     1.06700
C451        C  0.88539846  0.97706184  0.01050309     1.07100
C452        C  0.97546546  0.10053980  0.06529272     1.06600
H453        H  0.94412144  0.96740904  0.04546870     0.33300
O454        O  0.95878510  0.97973399  0.03307142    -1.29300
H455        H  0.97266752  0.08313277  0.00187254     0.33300
O456        O  0.97911857  0.06173790  0.00241007    -1.30600
C457        C  0.48176672  0.43251666  0.23552303    -0.01600
C458        C  0.48455276  0.42198643  0.26646034     0.07000
C459        C  0.49290381  0.39123677  0.27216066    -0.07600
C460        C  0.49699671  0.37013441  0.24776742     0.04400
C461        C  0.49133298  0.37953282  0.21601567    -0.14800
C462        C  0.48606667  0.41176010  0.21086968    -0.08100
C463        C  0.47973410  0.44242061  0.29373686     0.05400
C464        C  0.45340107  0.43685539  0.31291516    -0.09300
C465        C  0.45098296  0.45118447  0.34211900     0.00400
C466        C  0.47505283  0.47166198  0.35220762     0.00200
C467        C  0.50050640  0.47855594  0.33232573    -0.12800
C468        C  0.50309786  0.46400878  0.30325795     0.00700
C469        C  0.42489189  0.44283086  0.36227939     0.40000
C470        C  0.53114347  0.46953133  0.28484717     0.36600
C471        C  0.47298799  0.46410315  0.22858461     0.36300
C472        C  0.50914918  0.34041005  0.25734893     0.37100
N473        N  0.40406841  0.43600102  0.37848821    -0.43700
N474        N  0.55367899  0.47381600  0.27014404    -0.44100
N475        N  0.51922275  0.31704797  0.26607498    -0.41500
N476        N  0.46576422  0.48938414  0.22310270    -0.42900
H477        H  0.48301346  0.42037648  0.18718915     0.13200
H478        H  0.49661144  0.38374446  0.29617123     0.09700
H479        H  0.43559414  0.41999249  0.30576174     0.10800
H480        H  0.51936838  0.49382396  0.34038112     0.16600
C481        C  0.44721316  0.43015588  0.66537204    -0.01600
C482        C  0.47115217  0.40970430  0.67511240     0.07000
C483        C  0.49274205  0.39933753  0.65290308    -0.07600
C484        C  0.49189582  0.40991450  0.62197462     0.04400
C485        C  0.46885443  0.43142982  0.61226332    -0.14800
C486        C  0.44619475  0.44081392  0.63409925    -0.08100
C487        C  0.47346787  0.39658911  0.70748299     0.05400
C488        C  0.47042648  0.36449865  0.71098312    -0.09300
C489        C  0.47484762  0.34957840  0.73981033     0.00400
C490        C  0.48362196  0.36702667  0.76723569     0.00200
C491        C  0.48542893  0.39985354  0.76318570    -0.12800
C492        C  0.48108156  0.41445006  0.73396471     0.00700
C493        C  0.46762438  0.31677321  0.73882749     0.40000
C494        C  0.48573635  0.44766745  0.73160224     0.36600
C495        C  0.42373883  0.44070361  0.68705957     0.36300
C496        C  0.51575028  0.39882995  0.60089814     0.37100
N497        N  0.46126962  0.29068800  0.73613663    -0.43700
N498        N  0.48949229  0.47430979  0.72979684    -0.44100
N499        N  0.53512738  0.38983156  0.58441023    -0.41500
N500        N  0.40503491  0.44928062  0.70453956    -0.42900
H501        H  0.42877515  0.45772439  0.62721415     0.13200
H502        H  0.51083102  0.38317011  0.65997599     0.09700
H503        H  0.46418430  0.35079512  0.69056122     0.10800
H504        H  0.49092522  0.41439171  0.78312327     0.16600
C505        C  0.95803972  0.76262630  0.09713511    -0.01600
C506        C  0.97934595  0.78738497  0.10110792     0.07000
C507        C  0.00440415  0.78433902  0.12208274    -0.07600
C508        C  0.00914205  0.75646375  0.13846945     0.04400
C509        C  0.98840513  0.73036788  0.13396161    -0.14800
C510        C  0.96212502  0.73502898  0.11384542    -0.08100
C511        C  0.97562170  0.81679919  0.08358692     0.05400
C512        C  0.95773294  0.84043414  0.09679258    -0.09300
C513        C  0.95454089  0.86895569  0.08133495     0.00400
C514        C  0.96967870  0.87414601  0.05239105     0.00200
C515        C  0.98670207  0.85008837  0.03870800    -0.12800
C516        C  0.98936279  0.82130557  0.05388845     0.00700
C517        C  0.93606171  0.89288870  0.09570832     0.40000
C518        C  0.00658240  0.79683714  0.03891309     0.36600
C519        C  0.93175602  0.76507322  0.07578738     0.36300
C520        C  0.03657343  0.75519882  0.15844033     0.37100
N521        N  0.92113139  0.91213039  0.10693581    -0.43700
N522        N  0.02008915  0.77704131  0.02689581    -0.44100
N523        N  0.05891547  0.75463385  0.17397821    -0.41500
N524        N  0.91088257  0.76715257  0.05849708    -0.42900
H525        H  0.94378584  0.71759987  0.11119497     0.13200
H526        H  0.02066900  0.80376047  0.12527555     0.09700
H527        H  0.94660874  0.83668917  0.11935327     0.10800
H528        H  0.99920836  0.85424611  0.01700934     0.16600
C529        C  0.00352575  0.24035143  0.11311558    -0.01600
C530        C  0.97511545  0.22357288  0.11816921     0.07000
C531        C  0.95160053  0.23715601  0.13606469    -0.07600
C532        C  0.95557104  0.26713062  0.14836161     0.04400
C533        C  0.98388368  0.28494166  0.14263018    -0.14800
C534        C  0.00791327  0.27008323  0.12575209    -0.08100
C535        C  0.97113039  0.19076168  0.10750589     0.05400
C536        C  0.99333783  0.16930674  0.11774020    -0.09300
C537        C  0.99434166  0.13951275  0.10523105     0.00400
C538        C  0.97124109  0.12951503  0.08339898     0.00200
C539        C  0.94718756  0.15010972  0.07507076    -0.12800
C540        C  0.94729121  0.18079091  0.08646064     0.00700
C541        C  0.02110439  0.12096658  0.11361220     0.40000
C542        C  0.92424685  0.20204883  0.07432958     0.36600
C543        C  0.02851270  0.22778314  0.09434044     0.36300
C544        C  0.92898120  0.27937330  0.16506992     0.37100
N545        N  0.04345440  0.10739769  0.12030313    -0.43700
N546        N  0.90573526  0.21886659  0.06424541    -0.44100
N547        N  0.90717321  0.28869827  0.17801997    -0.41500
N548        N  0.04850559  0.21770061  0.07928494    -0.42900
H549        H  0.03049138  0.28137302  0.12210336     0.13200
H550        H  0.92996894  0.22415410  0.14059606     0.09700
H551        H  0.01136526  0.17660132  0.13429067     0.10800
H552        H  0.92976662  0.14305710  0.05782257     0.16600
C553        C  0.53181270  0.59266824  0.31603505    -0.01600
C554        C  0.52506865  0.62464092  0.31433586     0.07000
C555        C  0.52157115  0.64150348  0.34207729    -0.07600
C556        C  0.52275483  0.62647286  0.37126631     0.04400
C557        C  0.52796988  0.59423144  0.37285785    -0.14800
C558        C  0.53330652  0.57774691  0.34521282    -0.08100
C559        C  0.51821509  0.63982287  0.28386159     0.05400
C560        C  0.48896468  0.63411693  0.26975701    -0.09300
C561        C  0.48190459  0.64598904  0.23998103     0.00400
C562        C  0.50566137  0.66216622  0.22230940     0.00200
C563        C  0.53306493  0.67154949  0.23910079    -0.12800
C564        C  0.53987328  0.65985612  0.26894247     0.00700
C565        C  0.44930181  0.64350914  0.23051081     0.40000
C566        C  0.56979958  0.66766633  0.28315299     0.36600
C567        C  0.53571796  0.57449594  0.28804330     0.36300
C568        C  0.51656170  0.64405207  0.39919121     0.37100
N569        N  0.42295395  0.64167619  0.22362089    -0.43700
N570        N  0.59386307  0.67394788  0.29439735    -0.44100
N571        N  0.51155879  0.65798384  0.42166304    -0.41500
N572        N  0.53873863  0.56000797  0.26555687    -0.42900
H573        H  0.53683742  0.55285017  0.34633342     0.13200
H574        H  0.51626305  0.66605232  0.34083492     0.09700
H575        H  0.47130184  0.62059606  0.28242156     0.10800
H576        H  0.55056603  0.68631176  0.22777986     0.16600
C577        C  0.53440736  0.63816975  0.72168622    -0.01600
C578        C  0.51374236  0.61531496  0.70992494     0.07000
C579        C  0.48502811  0.60962849  0.72492795    -0.07600
C580        C  0.47706764  0.62502706  0.75242456     0.04400
C581        C  0.49890217  0.64665589  0.76618521    -0.14800
C582        C  0.52616744  0.65455791  0.74844079    -0.08100
C583        C  0.52042702  0.59807583  0.68095613     0.05400
C584        C  0.51999870  0.56536056  0.68173043    -0.09300
C585        C  0.52093189  0.54820678  0.65398778     0.00400
C586        C  0.52308229  0.56410482  0.62515858     0.00200
C587        C  0.52608553  0.59667099  0.62480176    -0.12800
C588        C  0.52371923  0.61373310  0.65211496     0.00700
C589        C  0.51681161  0.51486991  0.65563495     0.40000
C590        C  0.52147772  0.64712245  0.64935057     0.36600
C591        C  0.56496759  0.64389310  0.70773940     0.36300
C592        C  0.44592375  0.61798875  0.76422199     0.37100
N593        N  0.51335982  0.48817144  0.65711956    -0.43700
N594        N  0.51956048  0.67382632  0.64691298    -0.44100
N595        N  0.42085390  0.61158667  0.77301879    -0.41500
N596        N  0.58936598  0.64820323  0.69632693    -0.42900
H597        H  0.54281937  0.67170784  0.75731235     0.13200
H598        H  0.46850572  0.59298225  0.71481970     0.09700
H599        H  0.51717969  0.55331067  0.70393289     0.10800
H600        H  0.52786854  0.60905578  0.60265178     0.16600
C601        C  0.98100133  0.24426065  0.90288057    -0.01600
C602        C  0.00964187  0.22820298  0.90000754     0.07000
C603        C  0.03191115  0.23900488  0.87830687    -0.07600
C604        C  0.02713545  0.26603052  0.86086498     0.04400
C605        C  0.99952497  0.28430366  0.86555876    -0.14800
C606        C  0.97632656  0.27203652  0.88615547    -0.08100
C607        C  0.01661200  0.19913063  0.91777170     0.05400
C608        C  0.02620990  0.17301658  0.90090159    -0.09300
C609        C  0.03170646  0.14476214  0.91597846     0.00400
C610        C  0.02628692  0.14180751  0.94843008     0.00200
C611        C  0.01944832  0.16833807  0.96580505    -0.12800
C612        C  0.01518637  0.19706513  0.95083150     0.00700
C613        C  0.04262171  0.11896103  0.89762438     0.40000
C614        C  0.00959021  0.22386836  0.97002797     0.36600
C615        C  0.95569248  0.23250478  0.92237642     0.36300
C616        C  0.05196169  0.27505839  0.83930767     0.37100
N617        N  0.05173951  0.09847498  0.88293810    -0.43700
N618        N  0.00512324  0.24513052  0.98576509    -0.44100
N619        N  0.07191310  0.28216938  0.82216205    -0.41500
N620        N  0.93541050  0.22324568  0.93809336    -0.42900
H621        H  0.95443733  0.28399980  0.88977044     0.13200
H622        H  0.05367341  0.22645427  0.87532199     0.09700
H623        H  0.02878404  0.17448573  0.87569507     0.10800
H624        H  0.01578429  0.16631810  0.99084777     0.16600
C625        C  0.04045106  0.77130743  0.89367926    -0.01600
C626        C  0.01863672  0.79516553  0.88995448     0.07000
C627        C  0.99120109  0.78964151  0.87269974    -0.07600
C628        C  0.98535654  0.76096136  0.85852999     0.04400
C629        C  0.00766122  0.73645555  0.86101079    -0.14800
C630        C  0.03462578  0.74228372  0.87996871    -0.08100
C631        C  0.02189375  0.82515535  0.90647403     0.05400
C632        C  0.04082971  0.84920465  0.89389033    -0.09300
C633        C  0.04041131  0.87921707  0.90676186     0.00400
C634        C  0.02055461  0.88524920  0.93240195     0.00200
C635        C  0.00273295  0.86061342  0.94552174    -0.12800
C636        C  0.00344103  0.83082171  0.93302842     0.00700
C637        C  0.05860426  0.90372398  0.89189396     0.40000
C638        C  0.98425953  0.80654439  0.94722489     0.36600
C639        C  0.06859730  0.77589673  0.91221495     0.36300
C640        C  0.95678068  0.75824434  0.84023984     0.37100
N641        N  0.07312466  0.92338728  0.87988430    -0.43700
N642        N  0.96895927  0.78701359  0.95848726    -0.44100
N643        N  0.93404873  0.75656348  0.82532097    -0.41500
N644        N  0.09119045  0.77969100  0.92697797    -0.42900
H645        H  0.05113067  0.72425134  0.88535026     0.13200
H646        H  0.97407003  0.80799470  0.87042294     0.09700
H647        H  0.05491110  0.84481698  0.87328840     0.10800
H648        H  0.98733921  0.86487402  0.96517305     0.16600
C649        C  0.13145328  0.40410592  0.87840494    -0.01600
C650        C  0.09960106  0.40158040  0.88690025     0.07000
C651        C  0.08841970  0.41886066  0.91215918    -0.07600
C652        C  0.10878254  0.43735261  0.93014016     0.04400
C653        C  0.14114144  0.43938812  0.92239699    -0.14800
C654        C  0.15178425  0.42318228  0.89581139    -0.08100
C655        C  0.07850770  0.37732532  0.87381028     0.05400
C656        C  0.07080394  0.35230458  0.89307992    -0.09300
C657        C  0.04592260  0.33203906  0.88591145     0.00400
C658        C  0.02779029  0.33606257  0.85745514     0.00200
C659        C  0.03992154  0.35884937  0.83627349    -0.12800
C660        C  0.06400704  0.37988822  0.84455498     0.00700
C661        C  0.03811822  0.31079974  0.91129264     0.40000
C662        C  0.07277868  0.40450847  0.82302126     0.36600
C663        C  0.14413942  0.38576831  0.85333046     0.36300
C664        C  0.09601841  0.45170095  0.95767559     0.37100
N665        N  0.03248920  0.29475713  0.93244948    -0.43700
N666        N  0.07982219  0.42420897  0.80574255    -0.44100
N667        N  0.08561978  0.46287242  0.97985866    -0.41500
N668        N  0.15424102  0.37096974  0.83328960    -0.42900
H669        H  0.17640064  0.42434631  0.88915560     0.13200
H670        H  0.06387828  0.41640828  0.91895403     0.09700
H671        H  0.08288711  0.35010222  0.91539831     0.10800
H672        H  0.03118181  0.36124974  0.81300417     0.16600
C673        C  0.12326723  0.39050120  0.10376961    -0.01600
C674        C  0.09109222  0.39770252  0.10182914     0.07000
C675        C  0.08231184  0.42521801  0.08660540    -0.07600
C676        C  0.10492816  0.44500095  0.07253440     0.04400
C677        C  0.13722240  0.43669745  0.07237022    -0.14800
C678        C  0.14582450  0.40955863  0.08881975    -0.08100
C679        C  0.06626598  0.37676836  0.11546977     0.05400
C680        C  0.06078241  0.37702969  0.14765454    -0.09300
C681        C  0.03654393  0.35891179  0.16133231     0.00400
C682        C  0.01783961  0.33777868  0.14274593     0.00200
C683        C  0.02366037  0.33872053  0.11006828    -0.12800
C684        C  0.04733191  0.35751213  0.09659583     0.00700
C685        C  0.03071197  0.36533112  0.19390558     0.40000
C686        C  0.05146879  0.35697843  0.06308759     0.36600
C687        C  0.13366874  0.36352696  0.12090495     0.36300
C688        C  0.09418431  0.47409482  0.05969004     0.37100
N689        N  0.02658661  0.37108999  0.21998280    -0.43700
N690        N  0.05471865  0.35664249  0.03622366    -0.44100
N691        N  0.08546883  0.49752472  0.04975008    -0.41500
N692        N  0.14201323  0.34207312  0.13491233    -0.42900
H693        H  0.17031571  0.40284738  0.08988577     0.13200
H694        H  0.05763349  0.43139021  0.08597646     0.09700
H695        H  0.07480425  0.39264462  0.16208889     0.10800
H696        H  0.00930251  0.32487090  0.09448606     0.16600
C697        C  0.06813944  0.67878391  0.10292973    -0.01600
C698        C  0.07630251  0.64958161  0.11511432     0.07000
C699        C  0.06069273  0.63838628  0.14171998    -0.07600
C700        C  0.03566006  0.65449770  0.15498621     0.04400
C701        C  0.02602117  0.68374994  0.14237872    -0.14800
C702        C  0.04358727  0.69541336  0.11641784    -0.08100
C703        C  0.09972273  0.62946669  0.09948178     0.05400
C704        C  0.13094997  0.63996086  0.09644343    -0.09300
C705        C  0.15360127  0.62180710  0.08168668     0.00400
C706        C  0.14523574  0.59201306  0.06977415     0.00200
C707        C  0.11377078  0.58165985  0.07289419    -0.12800
C708        C  0.09114389  0.60002223  0.08750007     0.00700
C709        C  0.18487802  0.63511822  0.07841648     0.40000
C710        C  0.05902898  0.58852032  0.08928855     0.36600
C711        C  0.08297022  0.69127824  0.07506600     0.36300
C712        C  0.01990228  0.63921189  0.18085355     0.37100
N713        N  0.20988126  0.64595796  0.07598078    -0.43700
N714        N  0.03323556  0.57954906  0.09092096    -0.44100
N715        N  0.00845261  0.62640865  0.20192915    -0.41500
N716        N  0.09473322  0.70144772  0.05276800    -0.42900
H717        H  0.03685374  0.71636637  0.10432218     0.13200
H718        H  0.06731183  0.61605949  0.15144932     0.09700
H719        H  0.13763229  0.66259165  0.10557530     0.10800
H720        H  0.10673900  0.55908366  0.06395980     0.16600
C721        C  0.11680990  0.63504997  0.91588715    -0.01600
C722        C  0.09976885  0.62155300  0.89093073     0.07000
C723        C  0.10461662  0.59022532  0.88348525    -0.07600
C724        C  0.12611879  0.57239662  0.90057312     0.04400
C725        C  0.14347613  0.58619175  0.92514816    -0.14800
C726        C  0.13882454  0.61747273  0.93240371    -0.08100
C727        C  0.07520045  0.63931096  0.87409904     0.05400
C728        C  0.08368939  0.66526919  0.85582096    -0.09300
C729        C  0.06070735  0.68525126  0.84368703     0.00400
C730        C  0.02821136  0.68017544  0.85106473     0.00200
C731        C  0.02042602  0.65104812  0.86509735    -0.12800
C732        C  0.04320286  0.63166328  0.87767824     0.00700
C733        C  0.07171409  0.71170940  0.82561100     0.40000
C734        C  0.03280307  0.60527038  0.89622083     0.36600
C735        C  0.11088066  0.66636805  0.92603211     0.36300
C736        C  0.13027673  0.54020673  0.89230308     0.37100
N737        N  0.08110605  0.73281976  0.81133506    -0.43700
N738        N  0.02408233  0.58445569  0.91130677    -0.44100
N739        N  0.13355031  0.51441881  0.88566536    -0.41500
N740        N  0.10591123  0.69135814  0.93434862    -0.42900
H741        H  0.15194320  0.62797743  0.95151253     0.13200
H742        H  0.09129051  0.57964910  0.86456946     0.09700
H743        H  0.10845870  0.67053842  0.85197302     0.10800
H744        H  0.99633803  0.64299478  0.86733390     0.16600
C745        C  0.38866597  0.40677867  0.90956214    -0.01600
C746        C  0.38856324  0.41296904  0.87706496     0.07000
C747        C  0.36645616  0.43359473  0.86472415    -0.07600
C748        C  0.34507658  0.44850914  0.88435958     0.04400
C749        C  0.34595696  0.44317106  0.91701831    -0.14800
C750        C  0.36773193  0.42216225  0.92930079    -0.08100
C751        C  0.41296482  0.39980137  0.85622555     0.05400
C752        C  0.40458891  0.37914500  0.83230833    -0.09300
C753        C  0.42770040  0.36467173  0.81399423     0.00400
C754        C  0.46047110  0.36937628  0.82056470     0.00200
C755        C  0.46760103  0.39387986  0.84190178    -0.12800
C756        C  0.44474940  0.40812744  0.85995936     0.00700
C757        C  0.41636583  0.34494496  0.78913209     0.40000
C758        C  0.45461939  0.43184091  0.88190389     0.36600
C759        C  0.40991820  0.38438333  0.92291327     0.36300
C760        C  0.32311084  0.46997593  0.87058547     0.37100
N761        N  0.40589452  0.32920832  0.76975989    -0.43700
N762        N  0.46259845  0.45065149  0.89958349    -0.44100
N763        N  0.30554657  0.48717824  0.85951582    -0.41500
N764        N  0.42713767  0.36636097  0.93314586    -0.42900
H765        H  0.36797978  0.41735338  0.95423221     0.13200
H766        H  0.36636078  0.43853342  0.83981745     0.09700
H767        H  0.37984304  0.37397885  0.82818370     0.10800
H768        H  0.49113264  0.40335895  0.84442493     0.16600
C769        C  0.40725085  0.59212131  0.91033022    -0.01600
C770        C  0.39893569  0.61306871  0.88613847     0.07000
C771        C  0.36704320  0.61994164  0.88190714    -0.07600
C772        C  0.34371418  0.60652029  0.90096817     0.04400
C773        C  0.35167617  0.58334061  0.92338596    -0.14800
C774        C  0.38376111  0.57689583  0.92791911    -0.08100
C775        C  0.42282191  0.62640106  0.86389298     0.05400
C776        C  0.44397267  0.60624470  0.84988549    -0.09300
C777        C  0.46728815  0.61698140  0.82935113     0.00400
C778        C  0.46876439  0.64902658  0.81984434     0.00200
C779        C  0.44673370  0.66902118  0.83387282    -0.12800
C780        C  0.42443754  0.65821525  0.85574894     0.00700
C781        C  0.48818580  0.59344055  0.81785022     0.40000
C782        C  0.40462026  0.68071137  0.87066315     0.36600
C783        C  0.43975882  0.58642446  0.91823164     0.36300
C784        C  0.31219274  0.61829569  0.89757646     0.37100
N785        N  0.50405730  0.57363513  0.80915653    -0.43700
N786        N  0.38873358  0.69878056  0.88254593    -0.44100
N787        N  0.28703773  0.62809051  0.89531733    -0.41500
N788        N  0.46579783  0.58197538  0.92466589    -0.42900
H789        H  0.39072715  0.56002036  0.94542365     0.13200
H790        H  0.36017793  0.63592972  0.86351221     0.09700
H791        H  0.44235466  0.58157297  0.85516145     0.10800
H792        H  0.44772925  0.69374506  0.82946507     0.16600
C793        C  0.36826669  0.60826168  0.12512004    -0.01600
C794        C  0.39919569  0.61333176  0.11407670     0.07000
C795        C  0.40703418  0.60241918  0.08423170    -0.07600
C796        C  0.38467954  0.58679931  0.06540696     0.04400
C797        C  0.35368075  0.58103685  0.07664648    -0.14800
C798        C  0.34601812  0.59221104  0.10662512    -0.08100
C799        C  0.42400398  0.62904277  0.13362770     0.05400
C800        C  0.44746984  0.61103688  0.14730037    -0.09300
C801        C  0.47150566  0.62445768  0.16561248     0.00400
C802        C  0.47362900  0.65744796  0.16999372     0.00200
C803        C  0.44952732  0.67526879  0.15578654    -0.12800
C804        C  0.42468803  0.66135476  0.13869380     0.00700
C805        C  0.49313086  0.60315876  0.18016214     0.40000
C806        C  0.40005110  0.68073631  0.12641003     0.36600
C807        C  0.35898465  0.61904886  0.15559840     0.36300
C808        C  0.39400431  0.57827736  0.03420333     0.37100
N809        N  0.50995434  0.58562136  0.19184872    -0.43700
N810        N  0.37994222  0.69603669  0.11692258    -0.44100
N811        N  0.40157601  0.57167857  0.00914826    -0.41500
N812        N  0.35166858  0.62790644  0.17999423    -0.42900
H813        H  0.32251205  0.58826384  0.11586660     0.13200
H814        H  0.43070881  0.60647387  0.07544194     0.04100
H815        H  0.44673260  0.58605657  0.14397563     0.10800
H816        H  0.45006150  0.70030983  0.15692618     0.16600
C817        C  0.35306135  0.38587438  0.10571581    -0.01600
C818        C  0.38385633  0.39608059  0.11248989     0.07000
C819        C  0.39523944  0.42411083  0.09958035    -0.07600
C820        C  0.37605129  0.44250692  0.08057230     0.04400
C821        C  0.34501625  0.43237268  0.07359226    -0.14800
C822        C  0.33410937  0.40374240  0.08606803    -0.08100
C823        C  0.40438741  0.37910115  0.13438440     0.05400
C824        C  0.42412087  0.35613916  0.12296732    -0.09300
C825        C  0.44948568  0.34557128  0.14097519     0.00400
C826        C  0.45680038  0.36021268  0.17010842     0.00200
C827        C  0.43209039  0.37733822  0.18376314    -0.12800
C828        C  0.40686031  0.38785613  0.16582090     0.00700
C829        C  0.46901197  0.32231428  0.12701279     0.40000
C830        C  0.38466401  0.40879539  0.17970874     0.36600
C831        C  0.33989577  0.35814669  0.12004930     0.36300
C832        C  0.38797180  0.47263003  0.07076990     0.37100
N833        N  0.48359902  0.30338014  0.11485618    -0.43700
N834        N  0.36691741  0.42553688  0.19094826    -0.44100
N835        N  0.39726110  0.49693648  0.06314207    -0.41500
N836        N  0.32916064  0.33616610  0.13185827    -0.42900
H837        H  0.31029331  0.39566068  0.08129039     0.13200
H838        H  0.41888312  0.43215413  0.10534946     0.09700
H839        H  0.42084612  0.34784093  0.09925287     0.10800
H840        H  0.43283977  0.38413887  0.20804853     0.16600
C841        C  0.61808973  0.39934919  0.09930431    -0.01600
C842        C  0.58924579  0.41420802  0.10514003     0.07000
C843        C  0.58419370  0.44367021  0.09201102    -0.07600
C844        C  0.60665392  0.45797256  0.07265064     0.04400
C845        C  0.63606316  0.44359840  0.06762657    -0.14800
C846        C  0.64135059  0.41434707  0.08127942    -0.08100
C847        C  0.56413871  0.39975688  0.12504264     0.05400
C848        C  0.57158776  0.38943730  0.15522261    -0.09300
C849        C  0.54882832  0.37542271  0.17466030     0.00400
C850        C  0.51680298  0.37216363  0.16455413     0.00200
C851        C  0.50951849  0.38564935  0.13505406    -0.12800
C852        C  0.53266004  0.39747790  0.11493972     0.00700
C853        C  0.56014197  0.36355843  0.20416251     0.40000
C854        C  0.52325271  0.40644656  0.08367314     0.36600
C855        C  0.62399694  0.36824401  0.11046904     0.36300
C856        C  0.59860855  0.48747761  0.05865810     0.37100
N857        N  0.57091311  0.35409356  0.22712877    -0.43700
N858        N  0.51548875  0.41340160  0.05866290    -0.44100
N859        N  0.59189491  0.51096959  0.04733318    -0.41500
N860        N  0.62876494  0.34328346  0.11931179    -0.42900
H861        H  0.66344302  0.40271341  0.07716904     0.13200
H862        H  0.56239390  0.45557914  0.09677757     0.09700
H863        H  0.59561330  0.39202801  0.16361677     0.10800
H864        H  0.48569143  0.38796312  0.12694029     0.16600
C865        C  0.61865789  0.63309614  0.08263063    -0.01600
C866        C  0.60149884  0.61795258  0.10690869     0.07000
C867        C  0.60613673  0.58587416  0.11163809    -0.07600
C868        C  0.62820302  0.56955949  0.09409878     0.04400
C869        C  0.64384925  0.58433450  0.06901933    -0.14800
C870        C  0.63892804  0.61604072  0.06350801    -0.08100
C871        C  0.57904143  0.63470355  0.12792554     0.05400
C872        C  0.55602715  0.65421224  0.11513985    -0.09300
C873        C  0.53330316  0.66841094  0.13401967     0.00400
C874        C  0.53150556  0.66181200  0.16677152     0.00200
C875        C  0.55506121  0.64208165  0.17906118    -0.12800
C876        C  0.57905983  0.62999240  0.16060883     0.00700
C877        C  0.51253101  0.69020187  0.11898317     0.40000
C878        C  0.60350891  0.61274500  0.17627424     0.36600
C879        C  0.61740867  0.66627937  0.07777732     0.36300
C880        C  0.63653165  0.53860851  0.10401548     0.37100
N881        N  0.49635837  0.70802184  0.10682300    -0.43700
N882        N  0.62294522  0.59895757  0.18902819    -0.44100
N883        N  0.64389255  0.51416762  0.11246517    -0.41500
N884        N  0.61672014  0.69288005  0.07375022    -0.42900
H885        H  0.65168139  0.62770495  0.04475024     0.13200
H886        H  0.59315418  0.57356570  0.12979663     0.09700
H887        H  0.55544187  0.65818102  0.09009111     0.10800
H888        H  0.55468231  0.63421738  0.20298772     0.16600
C889        C  0.56948523  0.61980268  0.83200870    -0.01600
C890        C  0.57323158  0.63357489  0.86135907     0.07000
C891        C  0.55434997  0.65832829  0.86981929    -0.07600
C892        C  0.53033724  0.66850599  0.84998889     0.04400
C893        C  0.52603276  0.65503632  0.81969166    -0.14800
C894        C  0.54716955  0.63120819  0.81122659    -0.08100
C895        C  0.59508360  0.62040314  0.88436729     0.05400
C896        C  0.62535649  0.63325600  0.88683389    -0.09300
C897        C  0.64837795  0.61845416  0.90461441     0.00400
C898        C  0.64083373  0.59032581  0.92068533     0.00200
C899        C  0.60974972  0.57860256  0.91936022    -0.12800
C900        C  0.58706235  0.59317311  0.90104355     0.00700
C901        C  0.67952522  0.63240090  0.90485642     0.40000
C902        C  0.55629151  0.57872861  0.89790389     0.36600
C903        C  0.58598734  0.59177366  0.82399086     0.36300
C904        C  0.51004042  0.69212283  0.86227711     0.37100
N905        N  0.70445674  0.64362804  0.90438049    -0.43700
N906        N  0.53174144  0.56708641  0.89484638    -0.44100
N907        N  0.49414673  0.71109967  0.87262069    -0.41500
N908        N  0.59852612  0.56885808  0.81805684    -0.42900
H909        H  0.54450159  0.61841820  0.78976025     0.13200
H910        H  0.55724381  0.66855188  0.89280597     0.09700
H911        H  0.63134794  0.65417250  0.87369490     0.10800
H912        H  0.60345870  0.55708453  0.93129137     0.16600
C913        C  0.62752726  0.40658675  0.86686382    -0.01600
C914        C  0.59496225  0.41190800  0.86788335     0.07000
C915        C  0.58358490  0.43355777  0.88953630    -0.07600
C916        C  0.60400225  0.44969017  0.91004553     0.04400
C917        C  0.63688684  0.44442536  0.90911509    -0.14800
C918        C  0.64793556  0.42295981  0.88684699    -0.08100
C919        C  0.57192596  0.39323301  0.84893584     0.05400
C920        C  0.55161318  0.37280872  0.86475607    -0.09300
C921        C  0.52703714  0.35722024  0.84924389     0.00400
C922        C  0.52047422  0.36370847  0.81698778     0.00200
C923        C  0.54398538  0.38081074  0.80044619    -0.12800
C924        C  0.56930983  0.39557049  0.81608937     0.00700
C925        C  0.50726268  0.33747245  0.86855254     0.40000
C926        C  0.59203156  0.41324650  0.79795663     0.36600
C927        C  0.64053911  0.38341453  0.84650295     0.36300
C928        C  0.59024797  0.47106842  0.93182228     0.37100
N929        N  0.49241995  0.32209432  0.88542799    -0.43700
N930        N  0.61058759  0.42690709  0.78334085    -0.44100
N931        N  0.57904263  0.48810331  0.94929026    -0.41500
N932        N  0.65101740  0.36485584  0.83021153    -0.42900
H933        H  0.67283544  0.41836668  0.88510739     0.13200
H934        H  0.55843486  0.43751288  0.89073473     0.09700
H935        H  0.55454066  0.36960317  0.88979251     0.10800
H936        H  0.54259753  0.38337590  0.77531707     0.16600
C937        C  0.86237057  0.40761388  0.11145291    -0.01600
C938        C  0.89308127  0.40380210  0.09978338     0.07000
C939        C  0.90060803  0.41625246  0.07025286    -0.07600
C940        C  0.87824132  0.43227344  0.05236506     0.04400
C941        C  0.84751079  0.43691617  0.06425886    -0.14800
C942        C  0.84008662  0.42431710  0.09397609    -0.08100
C943        C  0.91594120  0.38255679  0.11525483     0.05400
C944        C  0.92150649  0.35426109  0.10088703    -0.09300
C945        C  0.94365971  0.33345814  0.11257684     0.00400
C946        C  0.96005236  0.33954856  0.14156794     0.00200
C947        C  0.95495459  0.36913535  0.15494036    -0.12800
C948        C  0.93315438  0.39023051  0.14238222     0.00700
C949        C  0.95014287  0.30813023  0.09158668     0.40000
C950        C  0.93006107  0.42020497  0.15687314     0.36600
C951        C  0.85273985  0.39267035  0.14028325     0.36300
C952        C  0.88686698  0.44141694  0.02092566     0.37100
N953        N  0.95490115  0.28841216  0.07398195    -0.43700
N954        N  0.92790527  0.44425873  0.16856673    -0.44100
N955        N  0.89359953  0.44847325  0.99560976    -0.41500
N956        N  0.84533474  0.38016211  0.16321345    -0.42900
H957        H  0.81660554  0.42696825  0.10341117     0.13200
H958        H  0.92378530  0.41224345  0.06054705     0.09700
H959        H  0.90910846  0.34891472  0.07928182     0.10800
H960        H  0.96869434  0.37626853  0.17507076     0.16600
C961        C  0.89140445  0.42598712  0.88843293    -0.01600
C962        C  0.88680546  0.39338727  0.88624304     0.07000
C963        C  0.85899137  0.38008337  0.89832627    -0.07600
C964        C  0.83656583  0.39837325  0.91335845     0.04400
C965        C  0.84170558  0.43083559  0.91645524    -0.14800
C966        C  0.86902041  0.44424409  0.90346903    -0.08100
C967        C  0.91312005  0.37260272  0.87721928     0.05400
C968        C  0.94073660  0.37507475  0.89445937    -0.09300
C969        C  0.96710905  0.35726743  0.88799947     0.00400
C970        C  0.96671765  0.33501822  0.86294267     0.00200
C971        C  0.93681642  0.33017374  0.84832440    -0.12800
C972        C  0.91088452  0.34943257  0.85422127     0.00700
C973        C  0.99202217  0.36295338  0.91010394     0.40000
C974        C  0.88305815  0.34641518  0.83498125     0.36600
C975        C  0.91939878  0.44121696  0.87624070     0.36300
C976        C  0.80971742  0.38276740  0.92742609     0.37100
N977        N  0.00963718  0.36972420  0.92971749    -0.43700
N978        N  0.86086493  0.34439538  0.81932232    -0.44100
N979        N  0.78834697  0.37010886  0.93879209    -0.41500
N980        N  0.94190020  0.45350362  0.86675947    -0.42900
H981        H  0.87297998  0.46908449  0.90522818     0.13200
H982        H  0.85562157  0.35506058  0.89764285     0.09700
H983        H  0.94158752  0.39148504  0.91370091     0.10800
H984        H  0.93403746  0.31240272  0.83066401     0.16600
C985        C  0.86001365  0.64582359  0.89909510    -0.01600
C986        C  0.89088792  0.63649855  0.89228338     0.07000
C987        C  0.89933836  0.60565091  0.89850199    -0.07600
C988        C  0.87772878  0.58419450  0.91158625     0.04400
C989        C  0.84707550  0.59365400  0.91974443    -0.14800
C990        C  0.83857821  0.62461362  0.91285972    -0.08100
C991        C  0.91540103  0.65859468  0.88004602     0.05400
C992        C  0.93844053  0.66968083  0.90064465    -0.09300
C993        C  0.96468849  0.68671111  0.88987227     0.00400
C994        C  0.96926519  0.69217458  0.85703347     0.00200
C995        C  0.94359692  0.68425846  0.83721536    -0.12800
C996        C  0.91736814  0.66714008  0.84827924     0.00700
C997        C  0.98777716  0.69538575  0.91325277     0.40000
C998        C  0.89335431  0.65749565  0.82631640     0.36600
C999        C  0.84994081  0.67708020  0.89239655     0.36300
C1000       C  0.88718797  0.55230775  0.91475314     0.37100
N1001       N  0.00587847  0.70195162  0.93247844    -0.43700
N1002       N  0.87412727  0.64980265  0.80865095    -0.44100
N1003       N  0.89474315  0.52667425  0.91692303    -0.41500
N1004       N  0.84182068  0.70206395  0.88680348    -0.42900
H1005       H  0.81514171  0.63250232  0.91854750     0.13200
H1006       H  0.92294943  0.59823020  0.89281269     0.09700
H1007       H  0.93649781  0.66389635  0.92531798     0.10800
H1008       H  0.94390892  0.69049605  0.81273352     0.16600
C1009       C  0.86944185  0.62590655  0.09222071    -0.01600
C1010       C  0.90024434  0.61447338  0.09393740     0.07000
C1011       C  0.90763560  0.58679486  0.07883205    -0.07600
C1012       C  0.88474625  0.57031657  0.06193533     0.04400
C1013       C  0.85324991  0.58103997  0.06111146    -0.14800
C1014       C  0.84615627  0.60893077  0.07646592    -0.08100
C1015       C  0.92556814  0.63250715  0.10938307     0.05400
C1016       C  0.92495306  0.63617445  0.14180803    -0.09300
C1017       C  0.94670609  0.65569220  0.15709120     0.00400
C1018       C  0.96935279  0.67327932  0.13925092     0.00200
C1019       C  0.97099012  0.66661948  0.10671173    -0.12800
C1020       C  0.94931979  0.64716574  0.09184117     0.00700
C1021       C  0.94471735  0.65539295  0.19074198     0.40000
C1022       C  0.95075405  0.64407671  0.05821317     0.36600
C1023       C  0.86177056  0.65597304  0.10472532     0.36300
C1024       C  0.89485423  0.54311924  0.04526392     0.37100
N1025       N  0.94214197  0.65436009  0.21768332    -0.43700
N1026       N  0.95164601  0.64150319  0.03129930    -0.44100
N1027       N  0.90327266  0.52167139  0.03156481    -0.41500
N1028       N  0.85593684  0.68026974  0.11440483    -0.42900
H1029       H  0.82254822  0.61816535  0.07537888     0.13200
H1030       H  0.93164927  0.57851638  0.07960390     0.09700
H1031       H  0.90705476  0.62375010  0.15524805     0.10800
H1032       H  0.98823546  0.67852037  0.09214349     0.16600
C1033       C  0.12412887  0.04036835  0.76979952    -0.01600
C1034       C  0.10198260  0.01868951  0.78136045     0.07000
C1035       C  0.09405428  0.99271614  0.76343492    -0.07600
C1036       C  0.10698027  0.98814161  0.73378971     0.04400
C1037       C  0.12838565  0.01080237  0.72075320    -0.14800
C1038       C  0.13763878  0.03580961  0.74048780    -0.08100
C1039       C  0.08643978  0.02224801  0.81205906     0.05400
C1040       C  0.05338174  0.02320836  0.81302200    -0.09300
C1041       C  0.03731236  0.02343020  0.84156080     0.00400
C1042       C  0.05456632  0.02355890  0.86975476     0.00200
C1043       C  0.08768201  0.02318034  0.86868456    -0.12800
C1044       C  0.10366017  0.02194202  0.84026185     0.00700
C1045       C  0.00335810  0.02084321  0.84119150     0.40000
C1046       C  0.13744809  0.01829260  0.84084946     0.36600
C1047       C  0.13231432  0.06823018  0.78686554     0.36300
C1048       C  0.09838402  0.95890817  0.71953948     0.37100
N1049       N  0.97617191  0.01840894  0.84075346    -0.43700
N1050       N  0.16449425  0.01529900  0.84151328    -0.44100
N1051       N  0.09096606  0.93510167  0.70916084    -0.41500
N1052       N  0.13886877  0.09053457  0.80055743    -0.42900
H1053       H  0.15446845  0.05309709  0.73203706     0.13200
H1054       H  0.07767498  0.97553397  0.77301900     0.09700
H1055       H  0.04007439  0.02265616  0.79134097     0.10800
H1056       H  0.10116882  0.02280524  0.89026742     0.16600
C1057       C  0.08762154  0.00337358  0.24610629    -0.01600
C1058       C  0.09709579  0.02707873  0.22519074     0.07000
C1059       C  0.11987262  0.04866649  0.23469121    -0.07600
C1060       C  0.13515809  0.04579164  0.26348152     0.04400
C1061       C  0.12849646  0.01988953  0.28378921    -0.14800
C1062       C  0.10254535  0.00054097  0.27532647    -0.08100
C1063       C  0.08503015  0.02933260  0.19263866     0.05400
C1064       C  0.05410038  0.03899061  0.18711786    -0.09300
C1065       C  0.04259223  0.04190548  0.15646603     0.00400
C1066       C  0.06244650  0.03570611  0.13076273     0.00200
C1067       C  0.09336850  0.02630836  0.13640570    -0.12800
C1068       C  0.10478802  0.02314734  0.16695465     0.00700
C1069       C  0.01013799  0.05059072  0.15199040     0.40000
C1070       C  0.13629044  0.01170198  0.17141450     0.36600
C1071       C  0.06358215  0.98087235  0.23762381     0.36300
C1072       C  0.15932688  0.06888305  0.26976956     0.37100
N1073       N  0.98423184  0.05793356  0.14858435    -0.43700
N1074       N  0.16146657  0.00233147  0.17492446    -0.44100
N1075       N  0.17872045  0.08774899  0.27316455    -0.41500
N1076       N  0.04444813  0.96264862  0.23093308    -0.42900
H1077       H  0.09371847  0.98280483  0.29113018     0.13200
H1078       H  0.12652098  0.06747774  0.21888067     0.09700
H1079       H  0.03887721  0.04390975  0.20676960     0.10800
H1080       H  0.10803629  0.01955938  0.11696311     0.16600
C1081       C  0.24009011  0.48168511  0.19628196    -0.01600
C1082       C  0.22420766  0.50626142  0.21082545     0.07000
C1083       C  0.21735598  0.53295753  0.19347253    -0.07600
C1084       C  0.22478676  0.53518426  0.16177139     0.04400
C1085       C  0.23872169  0.50973580  0.14633500    -0.14800
C1086       C  0.24668430  0.48333696  0.16415308    -0.08100
C1087       C  0.21381990  0.50505650  0.24393794     0.05400
C1088       C  0.22456820  0.52818087  0.26428670    -0.09300
C1089       C  0.21276494  0.53048915  0.29469217     0.00400
C1090       C  0.18982666  0.50857779  0.30619783     0.00200
C1091       C  0.18009941  0.48472531  0.28531613    -0.12800
C1092       C  0.19092635  0.48353868  0.25444355     0.00700
C1093       C  0.22392422  0.55673313  0.31270544     0.40000
C1094       C  0.17717370  0.46079196  0.23353020     0.36600
C1095       C  0.25047921  0.45502847  0.21396906     0.36300
C1096       C  0.21692354  0.56378110  0.14595164     0.37100
N1097       N  0.23300968  0.57822034  0.32635802    -0.43700
N1098       N  0.16611356  0.44283306  0.21654508    -0.44100
N1099       N  0.21089274  0.58696086  0.13364048    -0.41500
N1100       N  0.25900230  0.43377518  0.22818972    -0.42900
H1101       H  0.25814976  0.46396998  0.15301372     0.13200
H1102       H  0.20558058  0.55209324  0.20474800     0.09700
H1103       H  0.24175451  0.54521919  0.25595480     0.10800
H1104       H  0.16448108  0.46613288  0.29268677     0.16600
C1105       C  0.32565654  0.49900471  0.39442705    -0.01600
C1106       C  0.29789160  0.49926316  0.41235896     0.07000
C1107       C  0.29993935  0.49873015  0.44520047    -0.07600
C1108       C  0.32941731  0.49857398  0.46019143     0.04400
C1109       C  0.35718748  0.49870535  0.44201943    -0.14800
C1110       C  0.35479584  0.49827887  0.40926736    -0.08100
C1111       C  0.26689648  0.50131809  0.39660285     0.05400
C1112       C  0.25793992  0.47781847  0.37586532    -0.09300
C1113       C  0.23124964  0.48057276  0.35697909     0.00400
C1114       C  0.21091013  0.50656404  0.36016749     0.00200
C1115       C  0.22116562  0.53057702  0.38064822    -0.12800
C1116       C  0.24861091  0.52812029  0.39857279     0.00700
C1117       C  0.22509367  0.45548416  0.33539798     0.40000
C1118       C  0.25863399  0.55426339  0.41738569     0.36600
C1119       C  0.32491383  0.50157617  0.36071513     0.36300
C1120       C  0.33057259  0.50000989  0.49391579     0.37100
N1121       N  0.22069118  0.43509931  0.31832427    -0.43700
N1122       N  0.26689277  0.57519454  0.43233582    -0.44100
N1123       N  0.33163633  0.50116759  0.52093620    -0.41500
N1124       N  0.32407617  0.50387896  0.33374836    -0.42900
H1125       H  0.37595614  0.49838418  0.39504948     0.13200
H1126       H  0.27855635  0.49915275  0.45903203     0.09700
H1127       H  0.27264333  0.45752966  0.37368426     0.10800
H1128       H  0.20880095  0.55226223  0.38206212     0.16600
C1129       C  0.76137634  0.49695954  0.25690574    -0.01600
C1130       C  0.78558555  0.50291487  0.23541757     0.07000
C1131       C  0.81637462  0.50676308  0.24660623    -0.07600
C1132       C  0.82304057  0.50677116  0.27895320     0.04400
C1133       C  0.79826413  0.50335028  0.30153178    -0.14800
C1134       C  0.76792184  0.49601884  0.28896426    -0.08100
C1135       C  0.77880483  0.50486102  0.20123461     0.05400
C1136       C  0.76350135  0.53110159  0.18936456    -0.09300
C1137       C  0.75456577  0.53301303  0.15777086     0.00400
C1138       C  0.76104223  0.50822231  0.13718250     0.00200
C1139       C  0.77628193  0.48186551  0.14937637    -0.12800
C1140       C  0.78508409  0.48004139  0.18098408     0.00700
C1141       C  0.73768782  0.56016128  0.14760476     0.40000
C1142       C  0.79965601  0.45210649  0.19245460     0.36600
C1143       C  0.72940332  0.49127739  0.24647326     0.36300
C1144       C  0.85560611  0.51190913  0.28728147     0.37100
N1145       N  0.72409611  0.58189006  0.13947965    -0.43700
N1146       N  0.81118649  0.42975373  0.20194728    -0.44100
N1147       N  0.88211884  0.51660429  0.29185733    -0.41500
N1148       N  0.70381835  0.48689060  0.23801450    -0.42900
H1149       H  0.74846106  0.48892817  0.30362101     0.13200
H1150       H  0.83530150  0.51046998  0.22990430     0.09700
H1151       H  0.75804891  0.54998585  0.20505557     0.10800
H1152       H  0.78156902  0.46258814  0.13415498     0.16600
C1153       C  0.65089952  0.47914076  0.37042824    -0.01600
C1154       C  0.67693049  0.47620012  0.39100395     0.07000
C1155       C  0.67106632  0.47016984  0.42282277    -0.07600
C1156       C  0.64021127  0.46947723  0.43443419     0.04400
C1157       C  0.61473604  0.47641316  0.41452507    -0.14800
C1158       C  0.62011065  0.47995822  0.38238794    -0.08100
C1159       C  0.70987987  0.48315650  0.38031159     0.05400
C1160       C  0.71598116  0.51162055  0.36537236    -0.09300
C1161       C  0.74577036  0.51924583  0.35331389     0.00400
C1162       C  0.77122312  0.49788834  0.35570946     0.00200
C1163       C  0.76559970  0.47136529  0.37502070    -0.12800
C1164       C  0.73535069  0.46329758  0.38597890     0.00700
C1165       C  0.74838030  0.54883763  0.33739679     0.40000
C1166       C  0.73104628  0.43394462  0.40208407     0.36600
C1167       C  0.65538393  0.48207299  0.33705196     0.36300
C1168       C  0.63501490  0.46228716  0.46707518     0.37100
N1169       N  0.74903055  0.57285066  0.32507348    -0.43700
N1170       N  0.72773030  0.41036451  0.41491221    -0.44100
N1171       N  0.63043634  0.45608136  0.49306137    -0.41500
N1172       N  0.65922233  0.48428371  0.31033215    -0.42900
H1173       H  0.60049291  0.48467510  0.36687263     0.13200
H1174       H  0.69058813  0.46745559  0.43893716     0.09700
H1175       H  0.69696996  0.52800599  0.36262662     0.10800
H1176       H  0.78444871  0.45639900  0.38211060     0.16600
C1177       C  0.84078746  0.00175356  0.77996635    -0.01600
C1178       C  0.87243494  0.99666168  0.78762503     0.07000
C1179       C  0.89479557  0.99811696  0.76366033    -0.07600
C1180       C  0.88598696  0.00259148  0.73218289     0.04400
C1181       C  0.85347732  0.00375289  0.72331733    -0.14800
C1182       C  0.83197096  0.00661790  0.74873549    -0.08100
C1183       C  0.88328041  0.99395516  0.82078553     0.05400
C1184       C  0.89476635  0.96560200  0.83239366    -0.09300
C1185       C  0.90808548  0.96346017  0.86261193     0.00400
C1186       C  0.91030271  0.99016632  0.88164323     0.00200
C1187       C  0.89722128  0.01802556  0.87025578    -0.12800
C1188       C  0.88404776  0.02013657  0.84033921     0.00700
C1189       C  0.92119201  0.93427415  0.87249228     0.40000
C1190       C  0.87318946  0.04999400  0.82947305     0.36600
C1191       C  0.81669974  0.00182351  0.80381648     0.36300
C1192       C  0.91161424  0.00670005  0.71046994     0.37100
N1193       N  0.93171843  0.91082152  0.88031874    -0.43700
N1194       N  0.86449310  0.07384940  0.82062793    -0.44100
N1195       N  0.93367542  0.01050154  0.69497391    -0.41500
N1196       N  0.79734227  0.00175014  0.82285033    -0.42900
H1197       H  0.80768093  0.01264794  0.74498654     0.13200
H1198       H  0.91955264  0.99649657  0.76974617     0.09700
H1199       H  0.89417879  0.94533558  0.81744619     0.10800
H1200       H  0.89856498  0.03889957  0.88431928     0.16600
C1201       C  0.88750193  0.01211525  0.16740567    -0.01600
C1202       C  0.90210784  0.00191288  0.19494955     0.07000
C1203       C  0.93213032  0.98873356  0.19346025    -0.07600
C1204       C  0.94796538  0.98604792  0.16474186     0.04400
C1205       C  0.93350007  0.99674217  0.13688530    -0.14800
C1206       C  0.90302335  0.00934685  0.13893228    -0.08100
C1207       C  0.88578608  0.00425416  0.22533094     0.05400
C1208       C  0.86246846  0.98227810  0.23272948    -0.09300
C1209       C  0.84684132  0.98290297  0.26150774     0.00400
C1210       C  0.85495125  0.00591728  0.28436963     0.00200
C1211       C  0.87566431  0.03019296  0.27437209    -0.12800
C1212       C  0.89169167  0.02895304  0.24585591     0.00700
C1213       C  0.82450525  0.95787083  0.26715726     0.40000
C1214       C  0.91364979  0.05369327  0.23785426     0.36600
C1215       C  0.85680801  0.02620507  0.16785353     0.36300
C1216       C  0.97915912  0.97319744  0.16494315     0.37100
N1217       N  0.80712459  0.93712980  0.27040827    -0.43700
N1218       N  0.93119646  0.07359499  0.23155620    -0.44100
N1219       N  0.00418097  0.96288774  0.16528958    -0.41500
N1220       N  0.83228212  0.03758568  0.16813622    -0.42900
H1221       H  0.89114571  0.01774182  0.11817975     0.13200
H1222       H  0.94325372  0.98072230  0.21483314     0.09700
H1223       H  0.85698959  0.96399534  0.21611648     0.10800
H1224       H  0.87967333  0.05062004  0.28841922     0.16600
C1225       C  0.21113243  0.48590611  0.73785160    -0.01600
C1226       C  0.19598759  0.50670514  0.75787172     0.07000
C1227       C  0.17362278  0.52686638  0.74535272    -0.07600
C1228       C  0.16809010  0.52844957  0.71295340     0.04400
C1229       C  0.18741867  0.51141349  0.69197084    -0.14800
C1230       C  0.20605185  0.48774850  0.70551782    -0.08100
C1231       C  0.20464045  0.50880309  0.79151920     0.05400
C1232       C  0.22302832  0.53420472  0.80158767    -0.09300
C1233       C  0.23436141  0.53581025  0.83240258     0.00400
C1234       C  0.22682880  0.51185236  0.85404108     0.00200
C1235       C  0.20796409  0.48665513  0.84380459    -0.12800
C1236       C  0.19700479  0.48493197  0.81296382     0.00700
C1237       C  0.25517323  0.56130798  0.84036720     0.40000
C1238       C  0.17792300  0.45846208  0.80383042     0.36600
C1239       C  0.23466756  0.46493238  0.74963160     0.36300
C1240       C  0.14072517  0.54549019  0.70321054     0.37100
N1241       N  0.27216704  0.58171305  0.84619156    -0.43700
N1242       N  0.16272321  0.43720183  0.79642815    -0.44100
N1243       N  0.11844907  0.55901462  0.69604131    -0.41500
N1244       N  0.25370006  0.44849144  0.75936568    -0.42900
H1245       H  0.21937146  0.47262820  0.69047339     0.13200
H1246       H  0.16030409  0.54135945  0.76107039     0.09700
H1247       H  0.22937825  0.55239545  0.78498926     0.10800
H1248       H  0.20139553  0.46824967  0.86004141     0.16600
C1249       C  0.25742495  0.52854461  0.59668966    -0.01600
C1250       C  0.28388855  0.53454196  0.61560611     0.07000
C1251       C  0.27990513  0.53599202  0.64786801    -0.07600
C1252       C  0.25052666  0.53065115  0.66196011     0.04400
C1253       C  0.22344513  0.52188511  0.64337977    -0.14800
C1254       C  0.22787315  0.52267252  0.61044807    -0.08100
C1255       C  0.31644837  0.53717480  0.60277322     0.05400
C1256       C  0.32583262  0.56325005  0.58485711    -0.09300
C1257       C  0.35622611  0.56527379  0.57165170     0.00400
C1258       C  0.37750765  0.54072601  0.57613091     0.00200
C1259       C  0.36846515  0.51565687  0.59556352    -0.12800
C1260       C  0.33847935  0.51371587  0.60882352     0.00700
C1261       C  0.36443800  0.59200469  0.55271013     0.40000
C1262       C  0.33050454  0.48664135  0.62751173     0.36600
C1263       C  0.26020259  0.52712663  0.56310312     0.36300
C1264       C  0.25046818  0.53713837  0.69502183     0.37100
N1265       N  0.37097333  0.61372073  0.53786961    -0.43700
N1266       N  0.32434158  0.46495437  0.64256131    -0.44100
N1267       N  0.25211937  0.54309872  0.72135120    -0.41500
N1268       N  0.26232789  0.52602662  0.53615582    -0.42900
H1269       H  0.20810647  0.51753541  0.59517740     0.13200
H1270       H  0.30027757  0.54163473  0.66228376     0.09700
H1271       H  0.30922759  0.58174577  0.58077764     0.10800
H1272       H  0.38458825  0.49664770  0.59932538     0.16600
C1273       C  0.78432998  0.54035320  0.80195045    -0.01600
C1274       C  0.77576763  0.51614864  0.78148149     0.07000
C1275       C  0.75808478  0.49077206  0.79276570    -0.07600
C1276       C  0.74881755  0.48906900  0.82414082     0.04400
C1277       C  0.75695518  0.51353360  0.84482031    -0.14800
C1278       C  0.77464573  0.53902253  0.83317623    -0.08100
C1279       C  0.78498012  0.51650239  0.74815056     0.05400
C1280       C  0.80986954  0.49804009  0.73845294    -0.09300
C1281       C  0.81866837  0.49654464  0.70687873     0.00400
C1282       C  0.80118156  0.51308466  0.68352914     0.00200
C1283       C  0.77689356  0.53249794  0.69449396    -0.12800
C1284       C  0.76852048  0.53399463  0.72596339     0.00700
C1285       C  0.84697134  0.47944131  0.70068638     0.40000
C1286       C  0.74248235  0.55329749  0.73478149     0.36600
C1287       C  0.80398404  0.56620151  0.79188832     0.36300
C1288       C  0.73097714  0.46195318  0.83406096     0.37100
N1289       N  0.86986266  0.46581925  0.69640407    -0.43700
N1290       N  0.72152926  0.56875614  0.74158075    -0.44100
N1291       N  0.71691426  0.43992777  0.84161896    -0.41500
N1292       N  0.81992775  0.58697033  0.78435014    -0.42900
H1293       H  0.78189383  0.55761947  0.84875079     0.13200
H1294       H  0.75162327  0.47211535  0.77692961     0.09700
H1295       H  0.82291358  0.48507583  0.75591701     0.10800
H1296       H  0.76375623  0.54652145  0.67821540     0.16600
C1297       C  0.72389194  0.50055314  0.61975769    -0.01600
C1298       C  0.72309934  0.51565101  0.59043731     0.07000
C1299       C  0.75139958  0.52688180  0.57778791    -0.07600
C1300       C  0.77979941  0.52506991  0.59441293     0.04400
C1301       C  0.77997390  0.51471026  0.62631100    -0.14800
C1302       C  0.75185431  0.50012538  0.63715447    -0.08100
C1303       C  0.69291127  0.52113087  0.57341648     0.05400
C1304       C  0.66809273  0.53493905  0.58960621    -0.09300
C1305       C  0.63847297  0.53825714  0.57574760     0.00400
C1306       C  0.63371313  0.52967912  0.54422509     0.00200
C1307       C  0.65931517  0.51868734  0.52708289    -0.12800
C1308       C  0.68837142  0.51316545  0.54164969     0.00700
C1309       C  0.61334261  0.54984189  0.59486621     0.40000
C1310       C  0.71194331  0.49669397  0.52431841     0.36600
C1311       C  0.69646986  0.48457464  0.63224562     0.36300
C1312       C  0.80725756  0.53617791  0.57777271     0.37100
N1313       N  0.59381583  0.55907068  0.61101577    -0.43700
N1314       N  0.73061952  0.48312857  0.51047810    -0.44100
N1315       N  0.82762398  0.54585024  0.56243183    -0.41500
N1316       N  0.67455735  0.47163159  0.64219972    -0.42900
H1317       H  0.75136475  0.48817208  0.65949458     0.13200
H1318       H  0.75125740  0.53784247  0.55486798     0.09700
H1319       H  0.67153199  0.54208217  0.61368065     0.10800
H1320       H  0.65596398  0.51224161  0.50286584     0.16600
C1321       C  0.01212888  0.30224289  0.31128256    -0.01600
C1322       C  0.99022555  0.28852183  0.29047972     0.07000
C1323       C  0.96976996  0.26505427  0.30184290    -0.07600
C1324       C  0.97054033  0.25564653  0.33346263     0.04400
C1325       C  0.99231006  0.26966827  0.35436670    -0.14800
C1326       C  0.01319204  0.29261198  0.34267237    -0.08100
C1327       C  0.98919643  0.29765164  0.25663607     0.05400
C1328       C  0.01393491  0.28906722  0.23719200    -0.09300
C1329       C  0.01426399  0.29686808  0.20527987     0.00400
C1330       C  0.98888722  0.31365575  0.19122990     0.00200
C1331       C  0.96423825  0.32254166  0.21153643    -0.12800
C1332       C  0.96443730  0.31498563  0.24369341     0.00700
C1333       C  0.04218239  0.28848193  0.18820186     0.40000
C1334       C  0.93922131  0.32579511  0.26324470     0.36600
C1335       C  0.03285634  0.32728413  0.30132642     0.36300
C1336       C  0.94879148  0.23162823  0.34382261     0.37100
N1337       N  0.06511546  0.28204614  0.17530724    -0.43700
N1338       N  0.91921284  0.33461366  0.27909486    -0.44100
N1339       N  0.93127459  0.21242194  0.35207728    -0.41500
N1340       N  0.04938821  0.34752729  0.29360210    -0.42900
H1341       H  0.02964261  0.30405564  0.35845690     0.13200
H1342       H  0.95310159  0.25411516  0.28595245     0.09700
H1343       H  0.03338982  0.27624674  0.24716207     0.10800
H1344       H  0.94402158  0.33462913  0.20258884     0.16600
C1345       C  0.99279974  0.27648640  0.76745285    -0.01600
C1346       C  0.99040724  0.30150647  0.74649692     0.07000
C1347       C  0.98499198  0.33111521  0.75854047    -0.07600
C1348       C  0.98424731  0.33637481  0.79105925     0.04400
C1349       C  0.99169699  0.31201354  0.81290790    -0.14800
C1350       C  0.99230347  0.28164969  0.79968644    -0.08100
C1351       C  0.99132635  0.29627618  0.71204793     0.05400
C1352       C  0.96764294  0.27774023  0.69845113    -0.09300
C1353       C  0.96919729  0.26896722  0.66705434     0.00400
C1354       C  0.99452886  0.27953682  0.64802734     0.00200
C1355       C  0.01820162  0.29838221  0.66162471    -0.12800
C1356       C  0.01679653  0.30671657  0.69335783     0.00700
C1357       C  0.94505860  0.24795218  0.65550002     0.40000
C1358       C  0.04215038  0.32520684  0.70649801     0.36600
C1359       C  0.99595728  0.24499210  0.75634026     0.36300
C1360       C  0.97431075  0.36686183  0.80073606     0.37100
N1361       N  0.92573823  0.23109521  0.64625896    -0.43700
N1362       N  0.06247055  0.33997627  0.71711381    -0.44100
N1363       N  0.96587530  0.39120054  0.80809154    -0.41500
N1364       N  0.99827384  0.21989833  0.74712268    -0.42900
H1365       H  0.99231961  0.26094614  0.81396006     0.13200
H1366       H  0.98063641  0.35013058  0.74240887     0.09700
H1367       H  0.94824481  0.26927680  0.71281148     0.10800
H1368       H  0.03767932  0.30687991  0.64740835     0.16600
C1369       C  0.88258117  0.40594833  0.42331045    -0.01600
C1370       C  0.87736691  0.40203289  0.39078340     0.07000
C1371       C  0.89041647  0.37631499  0.37601045    -0.07600
C1372       C  0.90874675  0.35508087  0.39278517     0.04400
C1373       C  0.91494693  0.35955973  0.42507059    -0.14800
C1374       C  0.90141372  0.38500794  0.44000161    -0.08100
C1375       C  0.86164743  0.42658050  0.37166285     0.05400
C1376       C  0.87411695  0.45666232  0.37319230    -0.09300
C1377       C  0.85860733  0.48190394  0.35995011     0.00400
C1378       C  0.82821932  0.47762884  0.34555582     0.00200
C1379       C  0.81973601  0.44648765  0.33826799    -0.12800
C1380       C  0.83541252  0.42115841  0.35197694     0.00700
C1381       C  0.87670690  0.51058495  0.36034715     0.40000
C1382       C  0.82281091  0.39025434  0.34702992     0.36600
C1383       C  0.86881009  0.43139834  0.44010053     0.36300
C1384       C  0.92190420  0.32964890  0.37569159     0.37100
N1385       N  0.89254271  0.53271420  0.36092661    -0.43700
N1386       N  0.81256928  0.36556068  0.34277602    -0.44100
N1387       N  0.93203628  0.30938951  0.36144672    -0.41500
N1388       N  0.85784358  0.45195015  0.45335330    -0.42900
H1389       H  0.90521363  0.38832944  0.46486291     0.13200
H1390       H  0.88717296  0.37334130  0.35103210     0.09700
H1391       H  0.89629222  0.46050491  0.38539077     0.10800
H1392       H  0.79853986  0.44195792  0.32474965     0.16600
C1393       C  0.91082321  0.40264439  0.61161831    -0.01600
C1394       C  0.87904179  0.40703637  0.60295907     0.07000
C1395       C  0.86611059  0.38967993  0.57829505    -0.07600
C1396       C  0.88454224  0.36852050  0.56195792     0.04400
C1397       C  0.91624170  0.36422330  0.57066991    -0.14800
C1398       C  0.92908691  0.38116027  0.59557847    -0.08100
C1399       C  0.86125952  0.43377625  0.61496328     0.05400
C1400       C  0.87252871  0.46320615  0.60701082    -0.09300
C1401       C  0.85775345  0.49004862  0.61701766     0.00400
C1402       C  0.82972593  0.48807493  0.63574182     0.00200
C1403       C  0.81760394  0.45763523  0.64187758    -0.12800
C1404       C  0.83353842  0.43083636  0.63262228     0.00700
C1405       C  0.87302776  0.51794036  0.60576715     0.40000
C1406       C  0.82205858  0.40073561  0.64289994     0.36600
C1407       C  0.92538997  0.42072499  0.63621547     0.36300
C1408       C  0.87111620  0.35284590  0.53516525     0.37100
N1409       N  0.88742847  0.53870381  0.59570448    -0.43700
N1410       N  0.81317993  0.37660386  0.65149742    -0.44100
N1411       N  0.86053094  0.34055725  0.51346927    -0.41500
N1412       N  0.93702423  0.43549730  0.65572424    -0.42900
H1413       H  0.95343098  0.37770833  0.60235736     0.13200
H1414       H  0.84210907  0.39384666  0.57079696     0.09700
H1415       H  0.89350839  0.46513358  0.59252448     0.10800
H1416       H  0.79625235  0.45470538  0.65547232     0.16600
C1417       C  0.12388795  0.45354923  0.63794307    -0.01600
C1418       C  0.13824529  0.43241671  0.61774163     0.07000
C1419       C  0.17103581  0.43450570  0.61372216    -0.07600
C1420       C  0.18913458  0.45873015  0.62741386     0.04400
C1421       C  0.17397611  0.48294442  0.64422091    -0.14800
C1422       C  0.14162446  0.47778903  0.65127979    -0.08100
C1423       C  0.11901895  0.40855051  0.60045701     0.05400
C1424       C  0.10558306  0.41647305  0.57147548    -0.09300
C1425       C  0.08534556  0.39570390  0.55541150     0.00400
C1426       C  0.07771708  0.36619815  0.56850157     0.00200
C1427       C  0.09188076  0.35825340  0.59739098    -0.12800
C1428       C  0.11219903  0.37897233  0.61325848     0.00700
C1429       C  0.07381671  0.40501191  0.52507084     0.40000
C1430       C  0.12545090  0.36953369  0.64289816     0.36600
C1431       C  0.09059361  0.45147499  0.64461413     0.36300
C1432       C  0.22289792  0.45604164  0.62547352     0.37100
N1433       N  0.06484583  0.41264177  0.50067476    -0.43700
N1434       N  0.13604932  0.36190519  0.66664176    -0.44100
N1435       N  0.24992043  0.45323797  0.62377964    -0.41500
N1436       N  0.06392725  0.44990590  0.65009182    -0.42900
H1437       H  0.12939675  0.49438312  0.66559979     0.13200
H1438       H  0.18258109  0.41702275  0.59983213     0.09700
H1439       H  0.11084318  0.43915121  0.56139675     0.10800
H1440       H  0.08678973  0.33578094  0.60799113     0.16600
C1441       C  0.10040160  0.37576831  0.37946399    -0.01600
C1442       C  0.09295374  0.40742134  0.38119860     0.07000
C1443       C  0.06616002  0.41647392  0.39758486    -0.07600
C1444       C  0.04837447  0.39476305  0.41475771     0.04400
C1445       C  0.05798760  0.36328329  0.41612768    -0.14800
C1446       C  0.08307714  0.35404666  0.39692563    -0.08100
C1447       C  0.11511640  0.43172260  0.36998293     0.05400
C1448       C  0.10593181  0.45222095  0.34641731    -0.09300
C1449       C  0.12593364  0.47651110  0.33650990     0.00400
C1450       C  0.15658987  0.48059790  0.35008752     0.00200
C1451       C  0.16405360  0.46056690  0.37550395    -0.12800
C1452       C  0.14432477  0.43613770  0.38475534     0.00700
C1453       C  0.11362715  0.49649023  0.31232770     0.40000
C1454       C  0.15416650  0.41653341  0.41048347     0.36600
C1455       C  0.12665226  0.36532943  0.36103534     0.36300
C1456       C  0.02085119  0.40593367  0.43077200     0.37100
N1457       N  0.10261340  0.51139135  0.29265002    -0.43700
N1458       N  0.16210110  0.40060880  0.43084089    -0.44100
N1459       N  0.99882992  0.41526322  0.44335798    -0.41500
N1460       N  0.14776067  0.35707077  0.34632163    -0.42900
H1461       H  0.09020313  0.32997132  0.39642119     0.13200
H1462       H  0.06004212  0.44085703  0.39820256     0.09700
H1463       H  0.08283066  0.44929062  0.33582870     0.10800
H1464       H  0.18477050  0.46416165  0.38972038     0.16600
C1465       C  0.10259801  0.08623771  0.66078576    -0.01600
C1466       C  0.11486713  0.09071687  0.63070346     0.07000
C1467       C  0.13779017  0.07084274  0.61944198    -0.07600
C1468       C  0.14807384  0.04575398  0.63749624     0.04400
C1469       C  0.13586949  0.04047685  0.66832291    -0.14800
C1470       C  0.11322871  0.06180568  0.67927169    -0.08100
C1471       C  0.10129570  0.11412111  0.60968233     0.05400
C1472       C  0.11057607  0.14520287  0.61291571    -0.09300
C1473       C  0.09512679  0.16863197  0.59644135     0.00400
C1474       C  0.06943574  0.16089453  0.57642051     0.00200
C1475       C  0.06076768  0.12931573  0.57307895    -0.12800
C1476       C  0.07665536  0.10602872  0.58922115     0.00700
C1477       C  0.10599357  0.20018724  0.60139903     0.40000
C1478       C  0.06661976  0.07400549  0.58547697     0.36600
C1479       C  0.07707177  0.10492723  0.67222278     0.36300
C1480       C  0.17106023  0.02585888  0.62327904     0.37100
N1481       N  0.11467008  0.22546321  0.60551752    -0.43700
N1482       N  0.05888874  0.04826276  0.58267649    -0.44100
N1483       N  0.18971525  0.01040981  0.61159921    -0.41500
N1484       N  0.05640449  0.11965031  0.68120453    -0.42900
H1485       H  0.10115354  0.05839799  0.70122023     0.13200
H1486       H  0.14684678  0.07433585  0.59594013     0.09700
H1487       H  0.12947085  0.15119367  0.62901436     0.10800
H1488       H  0.04100108  0.12263928  0.55839827     0.16600
C1489       C  0.88017386  0.12195972  0.59097518    -0.01600
C1490       C  0.89136033  0.11449735  0.62119874     0.07000
C1491       C  0.91796259  0.13046236  0.63283783    -0.07600
C1492       C  0.93357332  0.15325417  0.61470205     0.04400
C1493       C  0.92237024  0.16060467  0.58449760    -0.14800
C1494       C  0.89552491  0.14503713  0.57302488    -0.08100
C1495       C  0.87869324  0.08702657  0.63881319     0.05400
C1496       C  0.88795819  0.05779687  0.62913850    -0.09300
C1497       C  0.87867078  0.03078568  0.64518323     0.00400
C1498       C  0.85650270  0.03197802  0.67066947     0.00200
C1499       C  0.84945611  0.06218004  0.68156501    -0.12800
C1500       C  0.85991233  0.08931108  0.66575185     0.00700
C1501       C  0.89720925  0.00416046  0.63727482     0.40000
C1502       C  0.85054496  0.11929817  0.67700441     0.36600
C1503       C  0.85343634  0.10564853  0.57765691     0.36300
C1504       C  0.96189313  0.16778542  0.62687741     0.37100
N1505       N  0.91382485  0.98400320  0.63124381    -0.43700
N1506       N  0.84311982  0.14351112  0.68571739    -0.44100
N1507       N  0.98467435  0.17938977  0.63648430    -0.41500
N1508       N  0.83207660  0.09247796  0.56694585    -0.42900
H1509       H  0.88684854  0.15058538  0.54980372     0.13200
H1510       H  0.92725184  0.12423146  0.65563537     0.09700
H1511       H  0.90422663  0.05627385  0.60962709     0.10800
H1512       H  0.83469808  0.06457065  0.70205624     0.16600
C1513       C  0.83782296  0.07842043  0.37290371    -0.01600
C1514       C  0.86988656  0.08308296  0.37988722     0.07000
C1515       C  0.89191249  0.06307244  0.36708798    -0.07600
C1516       C  0.88281118  0.03893884  0.34711297     0.04400
C1517       C  0.85056598  0.03495740  0.33777049    -0.14800
C1518       C  0.82851834  0.05503429  0.35199173    -0.08100
C1519       C  0.88157108  0.10847981  0.40050438     0.05400
C1520       C  0.89799562  0.10073145  0.42786127    -0.09300
C1521       C  0.91360605  0.12354354  0.44558198     0.00400
C1522       C  0.91350411  0.15508581  0.43558260     0.00200
C1523       C  0.89525907  0.16283419  0.40912160    -0.12800
C1524       C  0.87959474  0.13994487  0.39157346     0.00700
C1525       C  0.92933126  0.11353876  0.47380618     0.40000
C1526       C  0.86324020  0.14910705  0.36342005     0.36600
C1527       C  0.81380470  0.09605972  0.38839853     0.36300
C1528       C  0.90777644  0.01892011  0.33701294     0.37100
N1529       N  0.94180151  0.10540306  0.49644976    -0.43700
N1530       N  0.85004403  0.15628596  0.34086200    -0.44100
N1531       N  0.92876590  0.00385269  0.32947101    -0.41500
N1532       N  0.79442523  0.10990832  0.40093609    -0.42900
H1533       H  0.80347338  0.05174426  0.34857760     0.13200
H1534       H  0.91662887  0.06623768  0.37302158     0.09700
H1535       H  0.89919489  0.07653946  0.43500837     0.10800
H1536       H  0.89406619  0.18677333  0.40125763     0.16600
C1537       C  0.09047653  0.14308633  0.38030409    -0.01600
C1538       C  0.10022854  0.11496973  0.39382094     0.07000
C1539       C  0.09277710  0.10833730  0.42509376    -0.07600
C1540       C  0.07558739  0.12933910  0.44299275     0.04400
C1541       C  0.06603848  0.15787140  0.42961670    -0.14800
C1542       C  0.07391341  0.16437901  0.39825386    -0.08100
C1543       C  0.11361899  0.09031112  0.37418559     0.05400
C1544       C  0.14576240  0.09050499  0.36680172    -0.09300
C1545       C  0.15861763  0.06782132  0.34710671     0.00400
C1546       C  0.13868728  0.04393729  0.33438412     0.00200
C1547       C  0.10588966  0.04595561  0.34084683    -0.12800
C1548       C  0.09365002  0.06787449  0.36095493     0.00700
C1549       C  0.19161743  0.07163350  0.34000402     0.40000
C1550       C  0.06037041  0.06654747  0.36810668     0.36600
C1551       C  0.09584334  0.14972888  0.34757699     0.36300
C1552       C  0.06813133  0.12075809  0.47480417     0.37100
N1553       N  0.21809918  0.07590045  0.33479615    -0.43700
N1554       N  0.03379260  0.06538915  0.37407042    -0.44100
N1555       N  0.06209368  0.11334590  0.50016168    -0.41500
N1556       N  0.10004751  0.15469604  0.32127153    -0.42900
H1557       H  0.06634036  0.18585090  0.38737890     0.13200
H1558       H  0.09957498  0.08623844  0.43519471     0.09700
H1559       H  0.16083709  0.10870901  0.37634172     0.10800
H1560       H  0.08963840  0.02865935  0.33155418     0.16600
C1561       C  0.96310148  0.72086455  0.30576828    -0.01600
C1562       C  0.98513403  0.73452725  0.28489408     0.07000
C1563       C  0.00589613  0.75764905  0.29618693    -0.07600
C1564       C  0.00595275  0.76619395  0.32785303     0.04400
C1565       C  0.98507227  0.75127800  0.34906891    -0.14800
C1566       C  0.96331108  0.72924213  0.33743037    -0.08100
C1567       C  0.98731024  0.72484797  0.25142614     0.05400
C1568       C  0.96173990  0.72937099  0.23126502    -0.09300
C1569       C  0.96309312  0.72091812  0.19958517     0.00400
C1570       C  0.99060001  0.70675026  0.18701485     0.00200
C1571       C  0.01661732  0.70386866  0.20759510    -0.12800
C1572       C  0.01498100  0.71203653  0.23921150     0.00700
C1573       C  0.93502861  0.72595742  0.18117214     0.40000
C1574       C  0.04218263  0.70668555  0.25874811     0.36600
C1575       C  0.94071286  0.69738106  0.29570939     0.36300
C1576       C  0.02676150  0.79115224  0.33765839     0.37100
N1577       N  0.91214054  0.72969277  0.16697189    -0.43700
N1578       N  0.06404390  0.70231162  0.27427731    -0.44100
N1579       N  0.04319967  0.81142960  0.34531624    -0.41500
N1580       N  0.92246795  0.67865144  0.28807750    -0.42900
H1581       H  0.94707404  0.71761491  0.35338051     0.13200
H1582       H  0.02222040  0.76901291  0.28015022     0.09700
H1583       H  0.94050479  0.73970608  0.24036083     0.10800
H1584       H  0.03906563  0.69592031  0.19923837     0.16600
C1585       C  0.97277114  0.74143409  0.69306071    -0.01600
C1586       C  0.99868215  0.72692405  0.70725124     0.07000
C1587       C  0.02463866  0.71897538  0.68900602    -0.07600
C1588       C  0.02535818  0.72556024  0.65690220     0.04400
C1589       C  0.99948976  0.74050869  0.64245216    -0.14800
C1590       C  0.97325694  0.74789528  0.66095179    -0.08100
C1591       C  0.99999917  0.72132253  0.74142267     0.05400
C1592       C  0.99608938  0.69114927  0.75322381    -0.09300
C1593       C  0.99732362  0.68508236  0.78552745     0.00400
C1594       C  0.00199504  0.70983476  0.80729554     0.00200
C1595       C  0.00884593  0.73965422  0.79411436    -0.12800
C1596       C  0.00688258  0.74561736  0.76206744     0.00700
C1597       C  0.99353532  0.65303550  0.79511870     0.40000
C1598       C  0.01248490  0.77698040  0.75081947     0.36600
C1599       C  0.94555851  0.75012292  0.71104582     0.36300
C1600       C  0.05268311  0.71585351  0.63963563     0.37100
N1601       N  0.99038321  0.62713963  0.80205437    -0.43700
N1602       N  0.01677070  0.80211509  0.74184087    -0.44100
N1603       N  0.07480439  0.70797132  0.62622292    -0.41500
N1604       N  0.92377659  0.75723996  0.72542305    -0.42900
H1605       H  0.95312336  0.75913691  0.65042260     0.13200
H1606       H  0.04458495  0.70782726  0.70002962     0.09700
H1607       H  0.99191367  0.67220265  0.73703457     0.10800
H1608       H  0.01640300  0.75898854  0.80834114     0.16600
C1609       C  0.07196566  0.60627545  0.39831490    -0.01600
C1610       C  0.10324490  0.61181792  0.38861018     0.07000
C1611       C  0.11718781  0.64109791  0.39341814    -0.07600
C1612       C  0.10076459  0.66457758  0.40871806     0.04400
C1613       C  0.06960965  0.65871644  0.41952291    -0.14800
C1614       C  0.05554532  0.62953447  0.41372354    -0.08100
C1615       C  0.12263559  0.58649092  0.37598042     0.05400
C1616       C  0.13014105  0.58601594  0.34416328    -0.09300
C1617       C  0.14798961  0.56195076  0.33135713     0.00400
C1618       C  0.15971729  0.53770793  0.35117569     0.00200
C1619       C  0.15081253  0.53860971  0.38315214    -0.12800
C1620       C  0.13319575  0.56258285  0.39554919     0.00700
C1621       C  0.15109339  0.56264197  0.29775420     0.40000
C1622       C  0.12665590  0.56236599  0.42871152     0.36600
C1623       C  0.05630587  0.57678884  0.39284205     0.36300
C1624       C  0.11722144  0.69368635  0.41416864     0.37100
N1625       N  0.15274170  0.56372121  0.27073421    -0.43700
N1626       N  0.12147117  0.56219834  0.45527732    -0.44100
N1627       N  0.13078882  0.71684748  0.41825316    -0.41500
N1628       N  0.04370209  0.55318582  0.38843496    -0.42900
H1629       H  0.03155051  0.62479740  0.42126686     0.13200
H1630       H  0.14135459  0.64525425  0.38608854     0.09700
H1631       H  0.12124776  0.60426826  0.32907108     0.10800
H1632       H  0.15843246  0.52045967  0.39901191     0.16600
C1633       C  0.12777375  0.64090882  0.58117817    -0.01600
C1634       C  0.11416208  0.61590767  0.59816237     0.07000
C1635       C  0.08115026  0.61272551  0.59918160    -0.07600
C1636       C  0.06182631  0.63302275  0.58242788     0.04400
C1637       C  0.07550036  0.65727499  0.56455386    -0.14800
C1638       C  0.10839894  0.66144348  0.56476198    -0.08100
C1639       C  0.13368685  0.59101401  0.61231206     0.05400
C1640       C  0.15554913  0.59785019  0.63592679    -0.09300
C1641       C  0.17404267  0.57447638  0.64955386     0.00400
C1642       C  0.16945480  0.54257552  0.64108516     0.00200
C1643       C  0.14916981  0.53708752  0.61508659    -0.12800
C1644       C  0.13131809  0.56044373  0.60132626     0.00700
C1645       C  0.19664267  0.58470699  0.67262639     0.40000
C1646       C  0.11166101  0.55267477  0.57476207     0.36600
C1647       C  0.16150543  0.64525777  0.57915425     0.36300
C1648       C  0.02804943  0.62910243  0.58456836     0.37100
N1649       N  0.21399084  0.59476290  0.69099114    -0.43700
N1650       N  0.09588976  0.54671937  0.55345828    -0.44100
N1651       N  0.00095302  0.62618958  0.58613054    -0.41500
N1652       N  0.18853174  0.64883643  0.57751995    -0.42900
H1653       H  0.11901413  0.68047902  0.55154222     0.13200
H1654       H  0.07051227  0.59382596  0.61256132     0.09700
H1655       H  0.15824010  0.62168788  0.64373099     0.10800
H1656       H  0.14766445  0.51459717  0.60405133     0.16600
C1657       C  0.87795232  0.57514569  0.65605454    -0.01600
C1658       C  0.86759895  0.59929194  0.63658443     0.07000
C1659       C  0.83559032  0.60125698  0.62951128    -0.07600
C1660       C  0.81508457  0.57651381  0.63618301     0.04400
C1661       C  0.82760559  0.54791768  0.64741893    -0.14800
C1662       C  0.85766789  0.54989456  0.66181915    -0.08100
C1663       C  0.88967827  0.61743289  0.61698982     0.05400
C1664       C  0.88954921  0.61118314  0.58476399    -0.09300
C1665       C  0.90817194  0.62850018  0.56415098     0.00400
C1666       C  0.92723739  0.65265852  0.57586685     0.00200
C1667       C  0.92798508  0.65856226  0.60820872    -0.12800
C1668       C  0.90920370  0.64121527  0.62885687     0.00700
C1669       C  0.90476683  0.62306100  0.53103649     0.40000
C1670       C  0.90860128  0.64969714  0.66145728     0.36600
C1671       C  0.91007921  0.57381969  0.66707660     0.36300
C1672       C  0.78193988  0.58243304  0.63216799     0.37100
N1673       N  0.90146502  0.61867644  0.50456566    -0.43700
N1674       N  0.90806484  0.65668876  0.68754309    -0.44100
N1675       N  0.75551798  0.58801754  0.62909929    -0.41500
N1676       N  0.93570257  0.57273285  0.67626503    -0.42900
H1677       H  0.86702871  0.53012406  0.67412609     0.13200
H1678       H  0.82703042  0.62143367  0.61693859     0.09700
H1679       H  0.87368236  0.59357168  0.57545553     0.10800
H1680       H  0.94222925  0.67772428  0.61711802     0.16600
C1681       C  0.86296268  0.64131715  0.39738310    -0.01600
C1682       C  0.86807113  0.60912957  0.39984576     0.07000
C1683       C  0.89495250  0.59892156  0.41592439    -0.07600
C1684       C  0.91636488  0.62001104  0.42969930     0.04400
C1685       C  0.91091788  0.65246433  0.42800193    -0.14800
C1686       C  0.88419892  0.66244155  0.41118604    -0.08100
C1687       C  0.84678238  0.58565625  0.38458707     0.05400
C1688       C  0.84146705  0.58712936  0.35219346    -0.09300
C1689       C  0.82502454  0.56336449  0.33627543     0.00400
C1690       C  0.81582457  0.53556735  0.35255884     0.00200
C1691       C  0.81838671  0.53628324  0.38572747    -0.12800
C1692       C  0.83316220  0.56082183  0.40156998     0.00700
C1693       C  0.81709129  0.57001140  0.30416253     0.40000
C1694       C  0.83412847  0.55974930  0.43533052     0.36600
C1695       C  0.83573591  0.65329163  0.38129210     0.36300
C1696       C  0.94389293  0.60734827  0.44469142     0.37100
N1697       N  0.81072464  0.57660019  0.27865202    -0.43700
N1698       N  0.83443550  0.55878477  0.46238726    -0.44100
N1699       N  0.96591202  0.59707523  0.45667667    -0.41500
N1700       N  0.81396834  0.66276802  0.36822259    -0.42900
H1701       H  0.87961374  0.68701253  0.40873493     0.13200
H1702       H  0.89953191  0.57421773  0.41728596     0.09700
H1703       H  0.85064194  0.60690493  0.33905127     0.10800
H1704       H  0.81029092  0.51647902  0.39947053     0.16600
C1705       C  0.11187944  0.88177699  0.39795744    -0.01600
C1706       C  0.09618375  0.90754147  0.38526053     0.07000
C1707       C  0.06374209  0.91070974  0.39043159    -0.07600
C1708       C  0.04684828  0.88877086  0.40819972     0.04400
C1709       C  0.06249299  0.86299923  0.42103982    -0.14800
C1710       C  0.09492904  0.85963092  0.41550639    -0.08100
C1711       C  0.11324081  0.93303475  0.36876943     0.05400
C1712       C  0.12458617  0.92893649  0.33832178    -0.09300
C1713       C  0.13718421  0.95414278  0.32100936     0.00400
C1714       C  0.13763777  0.98468962  0.33385592     0.00200
C1715       C  0.12952318  0.98693295  0.36607956    -0.12800
C1716       C  0.11674475  0.96208734  0.38294666     0.00700
C1717       C  0.14754060  0.94794476  0.28955247     0.40000
C1718       C  0.10687191  0.96716624  0.41486613     0.36600
C1719       C  0.14540148  0.87811544  0.39410782     0.36300
C1720       C  0.01331526  0.89252832  0.41177067     0.37100
N1721       N  0.15513806  0.94265947  0.26417290    -0.43700
N1722       N  0.09873880  0.97125586  0.44031725    -0.44100
N1723       N  0.98640955  0.89539930  0.41453109    -0.41500
N1724       N  0.17227777  0.87512993  0.39111626    -0.42900
H1725       H  0.10713677  0.83983905  0.42527972     0.13200
H1726       H  0.05166416  0.93060545  0.38070446     0.09700
H1727       H  0.12262536  0.90617166  0.32768156     0.10800
H1728       H  0.13290789  0.00827934  0.37892133     0.16600
C1729       C  0.89795530  0.91502100  0.42884287    -0.01600
C1730       C  0.87462959  0.90813467  0.40644298     0.07000
C1731       C  0.86663313  0.87709148  0.40027301    -0.07600
C1732       C  0.88308303  0.85279751  0.41429161     0.04400
C1733       C  0.90851278  0.85957261  0.43490424    -0.14800
C1734       C  0.91444930  0.89086126  0.44298582    -0.08100
C1735       C  0.86378523  0.93203373  0.38418401     0.05400
C1736       C  0.87605320  0.93099311  0.35404095    -0.09300
C1737       C  0.86934509  0.95370060  0.33170388     0.00400
C1738       C  0.84759540  0.97793567  0.33877241     0.00200
C1739       C  0.83562564  0.97838335  0.36987972    -0.12800
C1740       C  0.84362230  0.95610425  0.39234252     0.00700
C1741       C  0.88844840  0.95163779  0.30394139     0.40000
C1742       C  0.83083407  0.95852659  0.42347850     0.36600
C1743       C  0.90693894  0.94667921  0.43610035     0.36300
C1744       C  0.87362168  0.82149280  0.40609498     0.37100
N1745       N  0.90484921  0.94880674  0.28256053    -0.43700
N1746       N  0.82060628  0.96083734  0.44841688    -0.44100
N1747       N  0.86591687  0.79646225  0.39947660    -0.41500
N1748       N  0.91412837  0.97200472  0.44208468    -0.42900
H1749       H  0.93300485  0.89680856  0.45944359     0.13200
H1750       H  0.84857686  0.87189470  0.38299628     0.09700
H1751       H  0.89256005  0.91279160  0.34842056     0.10800
H1752       H  0.81956544  0.99645470  0.37670949     0.16600
C1753       C  0.88163919  0.92537766  0.66531272    -0.01600
C1754       C  0.87205237  0.92166260  0.63397020     0.07000
C1755       C  0.84910687  0.94128499  0.62186719    -0.07600
C1756       C  0.83804061  0.96641701  0.63912792     0.04400
C1757       C  0.84953807  0.97228613  0.67016299    -0.14800
C1758       C  0.86960279  0.94962037  0.68327996    -0.08100
C1759       C  0.88658293  0.89826595  0.61316450     0.05400
C1760       C  0.88459745  0.86677336  0.62145023    -0.09300
C1761       C  0.90002795  0.84418448  0.60399788     0.00400
C1762       C  0.91820257  0.85309615  0.57732695     0.00200
C1763       C  0.91872974  0.88454391  0.56833851    -0.12800
C1764       C  0.90314952  0.90696811  0.58575398     0.00700
C1765       C  0.89688752  0.81238187  0.61477740     0.40000
C1766       C  0.90539455  0.93877826  0.57503879     0.36600
C1767       C  0.90564545  0.90604507  0.67893533     0.36300
C1768       C  0.81656890  0.98665786  0.62290820     0.37100
N1769       N  0.89412635  0.78699553  0.62358497    -0.43700
N1770       N  0.90747141  0.96401584  0.56568600    -0.44100
N1771       N  0.79932601  0.00215739  0.60906287    -0.41500
N1772       N  0.92506190  0.89069204  0.68970387    -0.42900
H1773       H  0.87704019  0.95080539  0.70733126     0.13200
H1774       H  0.84088517  0.93781205  0.59807530     0.09700
H1775       H  0.87122311  0.85986469  0.64202328     0.10800
H1776       H  0.93163702  0.89190764  0.54764419     0.16600
C1777       C  0.08477564  0.91553836  0.57517313    -0.01600
C1778       C  0.09759187  0.90988040  0.60505210     0.07000
C1779       C  0.09614341  0.87970980  0.61752039    -0.07600
C1780       C  0.08147324  0.85536730  0.60109268     0.04400
C1781       C  0.06756093  0.86112109  0.57142050    -0.14800
C1782       C  0.06988977  0.89135160  0.55873488    -0.08100
C1783       C  0.11031332  0.93553892  0.62471714     0.05400
C1784       C  0.08968092  0.95825090  0.63499030    -0.09300
C1785       C  0.09973922  0.98193790  0.65510303     0.00400
C1786       C  0.13171459  0.98340654  0.66602242     0.00200
C1787       C  0.15251131  0.96104793  0.65380500    -0.12800
C1788       C  0.14202619  0.93714481  0.63407722     0.00700
C1789       C  0.07560307  0.00287127  0.66541687     0.40000
C1790       C  0.16454544  0.91494537  0.62304610     0.36600
C1791       C  0.08692869  0.94597285  0.56084119     0.36300
C1792       C  0.08009753  0.82519205  0.61606679     0.37100
N1793       N  0.05547789  0.01884944  0.67338919    -0.43700
N1794       N  0.18269570  0.89719669  0.61430284    -0.44100
N1795       N  0.07917181  0.80105757  0.62816156    -0.41500
N1796       N  0.08879808  0.97037886  0.54941617    -0.42900
H1797       H  0.06005163  0.89619780  0.53582637     0.13200
H1798       H  0.10579347  0.87536079  0.64062420     0.09700
H1799       H  0.06515752  0.95696542  0.62780627     0.10800
H1800       H  0.17743293  0.96218233  0.65875734     0.16600
C1801       C  0.19335993  0.74915326  0.49072800    -0.01600
C1802       C  0.20486387  0.78009600  0.49150056     0.07000
C1803       C  0.18362264  0.80465954  0.49210515    -0.07600
C1804       C  0.15120707  0.79889676  0.49193715     0.04400
C1805       C  0.13961326  0.76811609  0.49049036    -0.14800
C1806       C  0.16071923  0.74334300  0.49010392    -0.08100
C1807       C  0.23891997  0.78790300  0.49211813     0.05400
C1808       C  0.25632110  0.78605632  0.46459769    -0.09300
C1809       C  0.28783635  0.79622610  0.46333641     0.00400
C1810       C  0.30284830  0.80974750  0.49015145     0.00200
C1811       C  0.28489704  0.80947372  0.51827417    -0.12800
C1812       C  0.25348687  0.79924810  0.51924332     0.00700
C1813       C  0.30353978  0.79150860  0.43391621     0.40000
C1814       C  0.23672965  0.79984234  0.54863665     0.36600
C1815       C  0.21456715  0.72324756  0.49170746     0.36300
C1816       C  0.13016957  0.82486998  0.49428380     0.37100
N1817       N  0.31448408  0.78694676  0.40963586    -0.43700
N1818       N  0.22319076  0.80016055  0.57210508    -0.44100
N1819       N  0.11323060  0.84556047  0.49646910    -0.41500
N1820       N  0.23162581  0.70253438  0.49270307    -0.42900
H1821       H  0.15171845  0.71962102  0.48981463     0.13200
H1822       H  0.19247529  0.82841972  0.49308650     0.09700
H1823       H  0.24502710  0.77675989  0.44379113     0.10800
H1824       H  0.29522005  0.81629439  0.54033277     0.16600
C1825       C  0.42771064  0.69258022  0.47346043    -0.01600
C1826       C  0.39464322  0.69541524  0.47341896     0.07000
C1827       C  0.37555491  0.66888468  0.46866553    -0.07600
C1828       C  0.38901240  0.63950727  0.46546692     0.04400
C1829       C  0.42195521  0.63661223  0.46702728    -0.14800
C1830       C  0.44101332  0.66329400  0.47036071    -0.08100
C1831       C  0.37994156  0.72613390  0.47757523     0.05400
C1832       C  0.38589963  0.74906434  0.45519781    -0.09300
C1833       C  0.37393062  0.77896637  0.45798741     0.00400
C1834       C  0.35569682  0.78725375  0.48499998     0.00200
C1835       C  0.34917759  0.76300672  0.50685087    -0.12800
C1836       C  0.36099939  0.73302664  0.50342116     0.00700
C1837       C  0.37989394  0.79838573  0.43093209     0.40000
C1838       C  0.35372606  0.70982923  0.52697024     0.36600
C1839       C  0.44836824  0.71921444  0.47800019     0.36300
C1840       C  0.36867586  0.61248760  0.46254755     0.37100
N1841       N  0.38530254  0.81274240  0.40853796    -0.43700
N1842       N  0.34781380  0.69114915  0.54573184    -0.44100
N1843       N  0.35248419  0.59072570  0.46037149    -0.41500
N1844       N  0.46473251  0.74067604  0.48151869    -0.42900
H1845       H  0.46638312  0.66100593  0.47182588     0.13200
H1846       H  0.35014544  0.67109058  0.46804941     0.09700
H1847       H  0.39983044  0.74319467  0.43483011     0.10800
H1848       H  0.33465740  0.76763790  0.52707685     0.16600
C1849       C  0.26255337  0.24269620  0.50655060    -0.01600
C1850       C  0.23888704  0.22025927  0.50117974     0.07000
C1851       C  0.24788574  0.18939245  0.49661011    -0.07600
C1852       C  0.27989106  0.18099388  0.49585577     0.04400
C1853       C  0.30437986  0.20415669  0.49734202    -0.14800
C1854       C  0.29432971  0.23468352  0.50486539    -0.08100
C1855       C  0.20479598  0.22876707  0.50110889     0.05400
C1856       C  0.19379336  0.24995542  0.47853628    -0.09300
C1857       C  0.16216198  0.25923256  0.47803616     0.00400
C1858       C  0.14073659  0.24730153  0.50053256     0.00200
C1859       C  0.15191310  0.22638857  0.52328252    -0.12800
C1860       C  0.18346099  0.21709060  0.52373983     0.00700
C1861       C  0.15256899  0.28178471  0.45489292     0.40000
C1862       C  0.19346175  0.19615431  0.54819611     0.36600
C1863       C  0.25482808  0.27396394  0.51562452     0.36300
C1864       C  0.28608486  0.14816351  0.49508961     0.37100
N1865       N  0.14474953  0.29991066  0.43645205    -0.43700
N1866       N  0.20127117  0.17939698  0.56790945    -0.44100
N1867       N  0.28944772  0.12152983  0.49516365    -0.41500
N1868       N  0.24873373  0.29892662  0.52321566    -0.42900
H1869       H  0.31103292  0.25292199  0.51072624     0.13200
H1870       H  0.22970469  0.17159371  0.49406526     0.09700
H1871       H  0.21007662  0.25937390  0.46127090     0.10800
H1872       H  0.13576818  0.21679985  0.54056063     0.16600
C1873       C  0.44005292  0.32267974  0.47681128    -0.01600
C1874       C  0.40706328  0.31881548  0.47969199     0.07000
C1875       C  0.38810199  0.34518092  0.47834526    -0.07600
C1876       C  0.40136282  0.37500170  0.47499146     0.04400
C1877       C  0.43455047  0.37915011  0.47359515    -0.14800
C1878       C  0.45349824  0.35264498  0.47373872    -0.08100
C1879       C  0.39154036  0.28764287  0.48382422     0.05400
C1880       C  0.39758203  0.26987344  0.51065838    -0.09300
C1881       C  0.38252250  0.24090527  0.51608125     0.00400
C1882       C  0.35978546  0.22896728  0.49419288     0.00200
C1883       C  0.35416178  0.24781512  0.46731098    -0.12800
C1884       C  0.36975246  0.27614640  0.46191214     0.00700
C1885       C  0.39294690  0.22485734  0.54373931     0.40000
C1886       C  0.36355884  0.29264242  0.43308490     0.36600
C1887       C  0.46049277  0.29620578  0.47684633     0.36300
C1888       C  0.38015649  0.40086892  0.47242694     0.37100
N1889       N  0.40276711  0.21340502  0.56621202    -0.43700
N1890       N  0.35872682  0.30583641  0.40994809    -0.44100
N1891       N  0.36298605  0.42140520  0.47020562    -0.41500
N1892       N  0.47673990  0.27485893  0.47688102    -0.42900
H1893       H  0.47888610  0.35535612  0.47262747     0.13200
H1894       H  0.36271314  0.34243238  0.48009972     0.09700
H1895       H  0.41443384  0.27880760  0.52761186     0.10800
H1896       H  0.33716820  0.24005901  0.44995601     0.16600
C1897       C  0.71512617  0.31787633  0.02318777    -0.01600
C1898       C  0.70424572  0.30172057  0.99659686     0.07000
C1899       C  0.70156168  0.31778834  0.96818713    -0.07600
C1900       C  0.71030588  0.34928753  0.96558646     0.04400
C1901       C  0.72155455  0.36579832  0.99215665    -0.14800
C1902       C  0.72341973  0.34949337  0.02086319    -0.08100
C1903       C  0.69984437  0.26730212  0.99671019     0.05400
C1904       C  0.66970158  0.25374531  0.99450686    -0.09300
C1905       C  0.66540288  0.22119939  0.99280255     0.00400
C1906       C  0.69193536  0.20106740  0.99204499     0.00200
C1907       C  0.72190996  0.21573553  0.99662668    -0.12800
C1908       C  0.72600361  0.24791609  0.99792954     0.00700
C1909       C  0.63326439  0.20982882  0.99177405     0.40000
C1910       C  0.75768483  0.26062291  0.99979772     0.36600
C1911       C  0.71855201  0.30229454  0.05299786     0.36300
C1912       C  0.70822907  0.36335197  0.93497570     0.37100
N1913       N  0.60716925  0.20168071  0.99076630    -0.43700
N1914       N  0.78299456  0.27090904  0.00116840    -0.44100
N1915       N  0.70697755  0.37423475  0.91021209    -0.41500
N1916       N  0.72145673  0.28980203  0.07685478    -0.42900
H1917       H  0.73180491  0.36127275  0.04168609     0.13200
H1918       H  0.69374673  0.30526128  0.94756484     0.09700
H1919       H  0.64937649  0.26872184  0.99412542     0.10800
H1920       H  0.74305484  0.20246326  0.99976246     0.16600
C1921       C  0.76834334  0.12066132  0.00464829    -0.01600
C1922       C  0.78712432  0.13134838  0.97960544     0.07000
C1923       C  0.77374471  0.15011432  0.95671324    -0.07600
C1924       C  0.74240553  0.15944622  0.95885456     0.04400
C1925       C  0.72333569  0.15085648  0.98536890    -0.14800
C1926       C  0.73689555  0.13008315  0.00721430    -0.08100
C1927       C  0.81990901  0.12073537  0.97513922     0.05400
C1928       C  0.82451858  0.09313777  0.95871534    -0.09300
C1929       C  0.85448738  0.08025866  0.95642583     0.00400
C1930       C  0.88078835  0.09567564  0.96972804     0.00200
C1931       C  0.87637810  0.12413913  0.98501180    -0.12800
C1932       C  0.84616688  0.13671675  0.98789252     0.00700
C1933       C  0.85689564  0.04926211  0.94404576     0.40000
C1934       C  0.84243165  0.16492466  0.00556206     0.36600
C1935       C  0.78089114  0.09958446  0.02776149     0.36300
C1936       C  0.73144154  0.17924525  0.93381218     0.37100
N1937       N  0.85845462  0.02412652  0.93480192    -0.43700
N1938       N  0.83958521  0.18745383  0.01987500    -0.44100
N1939       N  0.72351920  0.19509749  0.91338834    -0.41500
N1940       N  0.79114319  0.08264466  0.04613174    -0.42900
H1941       H  0.72315765  0.12049733  0.02625438     0.13200
H1942       H  0.78796992  0.15746170  0.93685096     0.09700
H1943       H  0.80428353  0.08066635  0.94924691     0.10800
H1944       H  0.89622001  0.13542172  0.99654274     0.16600
C1945       C  0.28377406  0.32082156  0.02249337    -0.01600
C1946       C  0.27668615  0.30180515  0.99658646     0.07000
C1947       C  0.25861626  0.31417447  0.97206358    -0.07600
C1948       C  0.24806174  0.34504675  0.97284319     0.04400
C1949       C  0.25597395  0.36453672  0.99840554    -0.14800
C1950       C  0.27347578  0.35170264  0.02323768    -0.08100
C1951       C  0.28628860  0.26844673  0.99565672     0.05400
C1952       C  0.27201955  0.24726520  0.01630159    -0.09300
C1953       C  0.27933054  0.21556072  0.01600345     0.00400
C1954       C  0.30134821  0.20354061  0.99399056     0.00200
C1955       C  0.31689176  0.22578561  0.97445763    -0.12800
C1956       C  0.30942267  0.25759156  0.97501984     0.00700
C1957       C  0.26258044  0.19608935  0.03819289     0.40000
C1958       C  0.32662372  0.27895524  0.95496111     0.36600
C1959       C  0.30241356  0.30925974  0.04819395     0.36300
C1960       C  0.22805636  0.35566731  0.94772879     0.37100
N1961       N  0.24865178  0.18127432  0.05629895    -0.43700
N1962       N  0.34048210  0.29618451  0.93906254    -0.44100
N1963       N  0.21181115  0.36421607  0.92778583    -0.41500
N1964       N  0.31740410  0.29966391  0.06860326    -0.42900
H1965       H  0.27997301  0.36608598  0.04299558     0.13200
H1966       H  0.25231973  0.29946696  0.95244275     0.09700
H1967       H  0.25460777  0.25559680  0.03267695     0.10800
H1968       H  0.33566075  0.21894744  0.95907384     0.16600
C1969       C  0.25405036  0.09480638  0.98768036    -0.01600
C1970       C  0.22459386  0.10676887  0.97926837     0.07000
C1971       C  0.22290336  0.13819435  0.97076673    -0.07600
C1972       C  0.24936921  0.15824016  0.97286895     0.04400
C1973       C  0.27850658  0.14720850  0.98533994    -0.14800
C1974       C  0.28065491  0.11447044  0.98874733    -0.08100
C1975       C  0.19505563  0.08746762  0.98110690     0.05400
C1976       C  0.18318312  0.07963693  0.01072938    -0.09300
C1977       C  0.15425651  0.06384230  0.01406976     0.00400
C1978       C  0.13618860  0.05572019  0.98745825     0.00200
C1979       C  0.14891053  0.06192675  0.95764637    -0.12800
C1980       C  0.17812098  0.07769273  0.95432717     0.00700
C1981       C  0.14382005  0.05582050  0.04520202     0.40000
C1982       C  0.19037205  0.08347318  0.92333316     0.36600
C1983       C  0.25737017  0.06265025  0.99674666     0.36300
C1984       C  0.24591941  0.18869515  0.95907529     0.37100
N1985       N  0.13569137  0.04927735  0.07021708    -0.43700
N1986       N  0.20030428  0.08789392  0.89848063    -0.44100
N1987       N  0.24295306  0.21287231  0.94751168    -0.41500
N1988       N  0.26006910  0.03700477  0.00445836    -0.42900
H1989       H  0.30291930  0.10431998  0.99511772     0.13200
H1990       H  0.20058350  0.14721216  0.96264852     0.09700
H1991       H  0.19635608  0.08643583  0.03141711     0.10800
H1992       H  0.13552634  0.05552609  0.93697720     0.16600
C1993       C  0.80534989  0.80007318  0.52925194    -0.01600
C1994       C  0.78261362  0.78932337  0.50760330     0.07000
C1995       C  0.79149923  0.76744510  0.48516185    -0.07600
C1996       C  0.82248523  0.75680343  0.48343169     0.04400
C1997       C  0.84537979  0.76747486  0.50503100    -0.14800
C1998       C  0.83618005  0.78870590  0.52817037    -0.08100
C1999       C  0.75004298  0.80186578  0.50599578     0.05400
C2000       C  0.74043227  0.81607589  0.47816965    -0.09300
C2001       C  0.70915561  0.82492095  0.47316864     0.00400
C2002       C  0.68609283  0.82102821  0.49747154     0.00200
C2003       C  0.69658270  0.80664159  0.52552526    -0.12800
C2004       C  0.72777917  0.79726260  0.52994650     0.00700
C2005       C  0.70248579  0.83533767  0.44172873     0.40000
C2006       C  0.73586869  0.78160352  0.55875304     0.36600
C2007       C  0.79827837  0.82428813  0.55128529     0.36300
C2008       C  0.82987162  0.73500478  0.45915025     0.37100
N2009       N  0.69815238  0.84339314  0.41621170    -0.43700
N2010       N  0.74225231  0.76914472  0.58192344    -0.44100
N2011       N  0.83522288  0.71761820  0.43940749    -0.41500
N2012       N  0.79268067  0.84381305  0.56883428    -0.42900
H2013       H  0.85358759  0.79779815  0.54446685     0.13200
H2014       H  0.77417453  0.75912986  0.46837415     0.09700
H2015       H  0.75750021  0.81907496  0.45945505     0.10800
H2016       H  0.67996335  0.80222633  0.54428863     0.16600
C2017       C  0.60309418  0.75675517  0.52984046    -0.01600
C2018       C  0.60155172  0.73596681  0.50475527     0.07000
C2019       C  0.61803900  0.74340975  0.47724088    -0.07600
C2020       C  0.63532790  0.77130947  0.47417307     0.04400
C2021       C  0.63370666  0.79449330  0.49777813    -0.14800
C2022       C  0.61920158  0.78511297  0.52642962    -0.08100
C2023       C  0.58558515  0.70502641  0.50785255     0.05400
C2024       C  0.55336060  0.70284876  0.51548864    -0.09300
C2025       C  0.53795415  0.67377025  0.51821949     0.00400
C2026       C  0.55465485  0.64628542  0.51176425     0.00200
C2027       C  0.58717551  0.64877080  0.50566281    -0.12800
C2028       C  0.60263952  0.67752625  0.50405567     0.00700
C2029       C  0.50539591  0.67303019  0.52796160     0.40000
C2030       C  0.63631430  0.67811537  0.49923663     0.36600
C2031       C  0.58966675  0.74883915  0.55993943     0.36300
C2032       C  0.65365756  0.77514495  0.44598109     0.37100
N2033       N  0.47951028  0.67256986  0.53645634    -0.43700
N2034       N  0.66330459  0.67870063  0.49546892    -0.44100
N2035       N  0.66755574  0.77709104  0.42277483    -0.41500
N2036       N  0.57897190  0.74230156  0.58401905    -0.42900
H2037       H  0.62058548  0.79961692  0.54696791     0.13200
H2038       H  0.61802078  0.72684630  0.45820683     0.09700
H2039       H  0.54024203  0.72391683  0.51932673     0.10800
H2040       H  0.60081931  0.62800030  0.50197629     0.16600
C2041       C  0.72863107  0.77871483  0.99341269    -0.01600
C2042       C  0.70564395  0.75500836  0.99206902     0.07000
C2043       C  0.67386913  0.76319430  0.99138476    -0.07600
C2044       C  0.66467604  0.79445223  0.99318713     0.04400
C2045       C  0.68766924  0.81893540  0.99634613    -0.14800
C2046       C  0.71970172  0.80992138  0.99411665    -0.08100
C2047       C  0.71445272  0.72155167  0.99186200     0.05400
C2048       C  0.71066430  0.70389896  0.01924239    -0.09300
C2049       C  0.71960555  0.67262765  0.02059869     0.00400
C2050       C  0.73191747  0.65786092  0.99363106     0.00200
C2051       C  0.73622913  0.67606644  0.96638323    -0.12800
C2052       C  0.72783227  0.70754351  0.96538944     0.00700
C2053       C  0.71591285  0.65674784  0.05024451     0.40000
C2054       C  0.73326310  0.72518511  0.93702195     0.36600
C2055       C  0.76171529  0.77143437  0.99510527     0.36300
C2056       C  0.63121736  0.79994104  0.99308130     0.37100
N2057       N  0.71326665  0.64436447  0.07422495    -0.43700
N2058       N  0.73777417  0.73960561  0.91449217    -0.44100
N2059       N  0.60422619  0.80337620  0.99313221    -0.41500
N2060       N  0.78813153  0.76535268  0.99677618    -0.42900
H2061       H  0.73856168  0.82694162  0.99282269     0.13200
H2062       H  0.65604273  0.74492457  0.98989713     0.09700
H2063       H  0.70105439  0.71481291  0.03988065     0.10800
H2064       H  0.74648344  0.66579275  0.94576796     0.16600
C2065       C  0.73871925  0.92258001  0.98342250    -0.01600
C2066       C  0.76142756  0.91815148  0.00689443     0.07000
C2067       C  0.75670455  0.89442635  0.02881795    -0.07600
C2068       C  0.73060701  0.87415638  0.02691684     0.04400
C2069       C  0.70860490  0.87630225  0.00149334    -0.14800
C2070       C  0.71278536  0.90216154  0.98100370    -0.08100
C2071       C  0.79186029  0.93577897  0.00694782     0.05400
C2072       C  0.79941434  0.95638346  0.03133598    -0.09300
C2073       C  0.82914951  0.97139547  0.03273024     0.00400
C2074       C  0.85187331  0.96579066  0.00930771     0.00200
C2075       C  0.84337028  0.94596676  0.98437237    -0.12800
C2076       C  0.81424374  0.93056470  0.98344449     0.00700
C2077       C  0.83595031  0.99112298  0.05909233     0.40000
C2078       C  0.80872330  0.90763970  0.95938207     0.36600
C2079       C  0.74138261  0.94843567  0.96183651     0.36300
C2080       C  0.72818270  0.85087279  0.05128754     0.37100
N2081       N  0.84101086  0.00693003  0.08036329    -0.43700
N2082       N  0.80425024  0.88894053  0.94047972    -0.44100
N2083       N  0.72764496  0.83242118  0.07108708    -0.41500
N2084       N  0.74363230  0.96928032  0.94471691    -0.42900
H2085       H  0.69541706  0.90766877  0.96346694     0.13200
H2086       H  0.77403409  0.89124759  0.04720930     0.09700
H2087       H  0.78228615  0.96020014  0.04965496     0.10800
H2088       H  0.86007476  0.94138267  0.96585009     0.16600
C2089       C  0.26478830  0.70730128  0.97208975    -0.01600
C2090       C  0.28153328  0.72170902  0.99664184     0.07000
C2091       C  0.28972742  0.70396028  0.02290824    -0.07600
C2092       C  0.28142224  0.67228594  0.02511767     0.04400
C2093       C  0.26480630  0.65744810  0.00028228    -0.14800
C2094       C  0.25696923  0.67550490  0.97384395    -0.08100
C2095       C  0.28660470  0.75603984  0.99735671     0.05400
C2096       C  0.26119991  0.77422856  0.00567897    -0.09300
C2097       C  0.26407415  0.80650840  0.00889905     0.00400
C2098       C  0.29336960  0.82244325  0.00179890     0.00200
C2099       C  0.31910288  0.80308199  0.99419233    -0.12800
C2100       C  0.31591129  0.77058129  0.99172002     0.00700
C2101       C  0.23687002  0.82017205  0.02321975     0.40000
C2102       C  0.34290317  0.75263353  0.98292883     0.36600
C2103       C  0.25490467  0.72500489  0.94512023     0.36300
C2104       C  0.29052828  0.65597604  0.05324177     0.37100
N2105       N  0.21453892  0.82935577  0.03537164    -0.43700
N2106       N  0.36449785  0.73823602  0.97572542    -0.44100
N2107       N  0.29775485  0.64336303  0.07607044    -0.41500
N2108       N  0.24695716  0.73945359  0.92368206    -0.42900
H2109       H  0.24420147  0.66490694  0.95457941     0.13200
H2110       H  0.30196453  0.71516384  0.04218456     0.09700
H2111       H  0.23892874  0.76265082  0.01111734     0.10800
H2112       H  0.34207307  0.81358154  0.98986548     0.16600
C2113       C  0.16950899  0.94259472  0.03948101    -0.01600
C2114       C  0.17532359  0.91213162  0.02886943     0.07000
C2115       C  0.14965951  0.89131243  0.02542762    -0.07600
C2116       C  0.11860846  0.90105931  0.03020030     0.04400
C2117       C  0.11284475  0.93189545  0.03912033    -0.14800
C2118       C  0.13851028  0.95209059  0.04456584    -0.08100
C2119       C  0.20787542  0.90152079  0.02157088     0.05400
C2120       C  0.23122695  0.90401603  0.04451927    -0.09300
C2121       C  0.26204128  0.89406034  0.03929818     0.00400
C2122       C  0.26944582  0.87701773  0.01158162     0.00200
C2123       C  0.24617713  0.87701377  0.98765346    -0.12800
C2124       C  0.21611957  0.88934728  0.99221121     0.00700
C2125       C  0.28472977  0.90577851  0.06156541     0.40000
C2126       C  0.19430483  0.88927569  0.96627158     0.36600
C2127       C  0.19464592  0.96530614  0.04315716     0.36300
C2128       C  0.09276784  0.87976233  0.02397695     0.37100
N2129       N  0.30174582  0.91682885  0.07968721    -0.43700
N2130       N  0.17710621  0.88935523  0.94524133    -0.44100
N2131       N  0.07184543  0.86291773  0.01909270    -0.41500
N2132       N  0.21479113  0.98345423  0.04628485    -0.42900
H2133       H  0.13417079  0.97619023  0.05029832     0.13200
H2134       H  0.15383063  0.86767243  0.01802783     0.09700
H2135       H  0.22550260  0.91473951  0.06666455     0.10800
H2136       H  0.25109729  0.86599523  0.96548720     0.16600
C2137       C  0.22545453  0.00580245  0.26680485    -0.01600
C2138       C  0.24893584  0.00534293  0.28983440     0.07000
C2139       C  0.23986906  0.00406028  0.32133817    -0.07600
C2140       C  0.20790110  0.00580664  0.33009646     0.04400
C2141       C  0.18396015  0.01025825  0.30695702    -0.14800
C2142       C  0.19382604  0.00709330  0.27536108    -0.08100
C2143       C  0.28284819  0.00687796  0.28095136     0.05400
C2144       C  0.29486640  0.03439196  0.26744347    -0.09300
C2145       C  0.32616636  0.03667234  0.25704359     0.00400
C2146       C  0.34624405  0.01073625  0.25969665     0.00200
C2147       C  0.33381860  0.98309161  0.27309987    -0.12800
C2148       C  0.30266181  0.98109231  0.28387541     0.00700
C2149       C  0.33668719  0.06595545  0.24376420     0.40000
C2150       C  0.29156755  0.95225797  0.29768875     0.36600
C2151       C  0.23316335  0.00473244  0.23391548     0.36300
C2152       C  0.20116792  0.00391065  0.36313839     0.37100
N2153       N  0.34506136  0.08955424  0.23336363    -0.43700
N2154       N  0.28292043  0.92910561  0.30886353    -0.44100
N2155       N  0.19679306  0.00233188  0.38982115    -0.41500
N2156       N  0.23912918  0.00399467  0.20753304    -0.42900
H2157       H  0.17709096  0.00533803  0.25641882     0.13200
H2158       H  0.25792790  0.00242182  0.33922666     0.09700
H2159       H  0.27958535  0.05424845  0.26499921     0.10800
H2160       H  0.34867859  0.96299532  0.27597160     0.16600
C2161       C  0.76384450  0.03841868  0.27888952    -0.01600
C2162       C  0.73986188  0.01697780  0.28704023     0.07000
C2163       C  0.74745781  0.99177152  0.30631659    -0.07600
C2164       C  0.77826008  0.98696542  0.31708402     0.04400
C2165       C  0.80293238  0.00893470  0.30961623    -0.14800
C2166       C  0.79435718  0.03468305  0.29063421    -0.08100
C2167       C  0.70689307  0.01913447  0.27494804     0.05400
C2168       C  0.69374093  0.99348551  0.25925962    -0.09300
C2169       C  0.66186046  0.99252465  0.25067560     0.00400
C2170       C  0.64233054  0.01827474  0.25671158     0.00200
C2171       C  0.65596241  0.04446522  0.27146781    -0.12800
C2172       C  0.68759713  0.04477397  0.28120079     0.00700
C2173       C  0.64997196  0.96415645  0.23686786     0.40000
C2174       C  0.69900895  0.07054491  0.29973172     0.36600
C2175       C  0.75835874  0.06361712  0.25719903     0.36300
C2176       C  0.78267218  0.95773244  0.33308260     0.37100
N2177       N  0.64072450  0.94100583  0.22643917    -0.43700
N2178       N  0.70838649  0.09100772  0.31471122    -0.44100
N2179       N  0.78514815  0.93385270  0.34540162    -0.41500
N2180       N  0.75424032  0.08388840  0.23983050    -0.42900
H2181       H  0.81221863  0.05176745  0.28403824     0.13200
H2182       H  0.72906164  0.97495722  0.31226212     0.09700
H2183       H  0.70831320  0.97352936  0.25464338     0.10800
H2184       H  0.64142786  0.06416068  0.27712254     0.16600
C2185       C  0.33683671  0.88231134  0.42477178    -0.01600
C2186       C  0.36881309  0.89106141  0.42243614     0.07000
C2187       C  0.39032465  0.87857417  0.44353806    -0.07600
C2188       C  0.38114040  0.85595744  0.46538564     0.04400
C2189       C  0.34916163  0.84470254  0.46658757    -0.14800
C2190       C  0.32724443  0.85956094  0.44664166    -0.08100
C2191       C  0.38129754  0.91153044  0.39703653     0.05400
C2192       C  0.39655485  0.93953883  0.40489836    -0.09300
C2193       C  0.41293783  0.95719845  0.38234475     0.00400
C2194       C  0.41492659  0.94641579  0.35107917     0.00200
C2195       C  0.39814424  0.91905397  0.34313459    -0.12800
C2196       C  0.38170469  0.90159538  0.36569387     0.00700
C2197       C  0.42727824  0.98615714  0.39228834     0.40000
C2198       C  0.36725060  0.87246726  0.35643927     0.36600
C2199       C  0.31344769  0.89711406  0.40545180     0.36300
C2200       C  0.40632381  0.84241320  0.48347098     0.37100
N2201       N  0.43874395  0.00931476  0.40042447    -0.43700
N2202       N  0.35572467  0.84911538  0.34898444    -0.44100
N2203       N  0.42709061  0.83155950  0.49705670    -0.41500
N2204       N  0.29491046  0.90930901  0.38997234    -0.42900
H2205       H  0.30238887  0.85403924  0.44812385     0.13200
H2206       H  0.41498334  0.88544276  0.44183975     0.09700
H2207       H  0.39620084  0.94728627  0.42899474     0.10800
H2208       H  0.39880898  0.91039232  0.31938814     0.16600
C2209       C  0.60371625  0.85488556  0.42116776    -0.01600
C2210       C  0.61394332  0.88585191  0.41818219     0.07000
C2211       C  0.63829119  0.89696775  0.43720815    -0.07600
C2212       C  0.65157241  0.87800876  0.46031689     0.04400
C2213       C  0.64051119  0.84663313  0.46486060    -0.14800
C2214       C  0.61678159  0.83578653  0.44409149    -0.08100
C2215       C  0.59862545  0.90704035  0.39572741     0.05400
C2216       C  0.56835947  0.91765657  0.40246336    -0.09300
C2217       C  0.55162125  0.93516555  0.38053976     0.00400
C2218       C  0.56561890  0.94292764  0.35145309     0.00200
C2219       C  0.59619907  0.93242163  0.34502802    -0.12800
C2220       C  0.61259949  0.91443165  0.36680894     0.00700
C2221       C  0.51940950  0.94269794  0.38769975     0.40000
C2222       C  0.64307397  0.90247906  0.35858680     0.36600
C2223       C  0.57884491  0.84248997  0.40154259     0.36300
C2224       C  0.67678232  0.89166103  0.47868924     0.37100
N2225       N  0.49351699  0.94836286  0.39349557    -0.43700
N2226       N  0.66740748  0.89254336  0.35223333    -0.44100
N2227       N  0.69733408  0.90285110  0.49268648    -0.41500
N2228       N  0.55890091  0.83271941  0.38577200    -0.42900
H2229       H  0.60589108  0.81321158  0.44687959     0.13200
H2230       H  0.64649756  0.92082349  0.43440086     0.09700
H2231       H  0.55738055  0.91124456  0.42452676     0.10800
H2232       H  0.60720720  0.93791446  0.32275182     0.16600
C2233       C  0.37841036  0.09961404  0.38126185    -0.01600
C2234       C  0.38465083  0.13195486  0.38274179     0.07000
C2235       C  0.40870139  0.14490682  0.36400649    -0.07600
C2236       C  0.42695717  0.12621127  0.34479054     0.04400
C2237       C  0.42093386  0.09397047  0.34367577    -0.14800
C2238       C  0.39652358  0.08093572  0.36169692    -0.08100
C2239       C  0.37204681  0.15128352  0.40837705     0.05400
C2240       C  0.39377673  0.16200545  0.43036321    -0.09300
C2241       C  0.38424431  0.17690824  0.45741390     0.00400
C2242       C  0.35145272  0.18191477  0.46345753     0.00200
C2243       C  0.32999698  0.17393041  0.43923153    -0.12800
C2244       C  0.33994683  0.15812251  0.41230033     0.00700
C2245       C  0.40911604  0.18349190  0.47963789     0.40000
C2246       C  0.31695409  0.14934668  0.38894087     0.36600
C2247       C  0.35448262  0.08478002  0.40035264     0.36300
C2248       C  0.45305205  0.14026480  0.32793808     0.37100
N2249       N  0.42999542  0.18780311  0.49657741    -0.43700
N2250       N  0.29853082  0.14221524  0.37022871    -0.44100
N2251       N  0.47422008  0.15144554  0.31480285    -0.41500
N2252       N  0.33521889  0.07263219  0.41538145    -0.42900
H2253       H  0.39163919  0.05615026  0.36046432     0.13200
H2254       H  0.41426162  0.16953528  0.36566936     0.09700
H2255       H  0.41858349  0.15705520  0.42718491     0.10800
H2256       H  0.30538369  0.17954697  0.44100534     0.16600
C2257       C  0.46933645  0.27834362  0.22232404    -0.01600
C2258       C  0.49433897  0.25921863  0.21369595     0.07000
C2259       C  0.51791874  0.27127017  0.19410236    -0.07600
C2260       C  0.51735909  0.30215450  0.18332794     0.04400
C2261       C  0.49358533  0.32279546  0.19424512    -0.14800
C2262       C  0.46912276  0.30937882  0.21269068    -0.08100
C2263       C  0.49419849  0.22561109  0.22176562     0.05400
C2264       C  0.46975771  0.20692864  0.21000254    -0.09300
C2265       C  0.46813870  0.17517671  0.21664896     0.00400
C2266       C  0.49235703  0.16093020  0.23422562     0.00200
C2267       C  0.51686251  0.17981359  0.24624983    -0.12800
C2268       C  0.51756778  0.21203512  0.24069283     0.00700
C2269       C  0.44124669  0.15815673  0.20472262     0.40000
C2270       C  0.54150464  0.23088384  0.25575092     0.36600
C2271       C  0.44365709  0.26669786  0.24139428     0.36300
C2272       C  0.53954586  0.30954549  0.15873643     0.37100
N2273       N  0.41915671  0.14511374  0.19547931    -0.43700
N2274       N  0.56039633  0.24604877  0.26820714    -0.44100
N2275       N  0.55722436  0.31436955  0.13862019    -0.41500
N2276       N  0.42299350  0.25716466  0.25643618    -0.42900
H2277       H  0.44995298  0.32372786  0.22057499     0.13200
H2278       H  0.53605635  0.25582930  0.18583375     0.09700
H2279       H  0.45162859  0.21735723  0.19560385     0.10800
H2280       H  0.53517982  0.16948661  0.26045084     0.16600
C2281       C  0.47310854  0.75246175  0.21576946    -0.01600
C2282       C  0.49787109  0.77330628  0.20882432     0.07000
C2283       C  0.52414115  0.76243122  0.19290205    -0.07600
C2284       C  0.52666334  0.73104592  0.18439338     0.04400
C2285       C  0.50124868  0.70933841  0.19042912    -0.14800
C2286       C  0.47493884  0.72125515  0.20672626    -0.08100
C2287       C  0.49690033  0.80662356  0.21804577     0.05400
C2288       C  0.50670619  0.81560528  0.24817371    -0.09300
C2289       C  0.50630785  0.84700964  0.25721563     0.00400
C2290       C  0.49534002  0.86972139  0.23609761     0.00200
C2291       C  0.48562764  0.86066533  0.20607936    -0.12800
C2292       C  0.48662129  0.82953615  0.19685226     0.00700
C2293       C  0.51678672  0.85539068  0.28823090     0.40000
C2294       C  0.47752016  0.82167758  0.16531016     0.36600
C2295       C  0.44588783  0.76249553  0.23297845     0.36300
C2296       C  0.55715068  0.72264114  0.17250298     0.37100
N2297       N  0.52516488  0.86216954  0.31308342    -0.43700
N2298       N  0.47046953  0.81541413  0.13994138    -0.44100
N2299       N  0.58196135  0.71677306  0.16323063    -0.41500
N2300       N  0.42421692  0.77066243  0.24692313    -0.42900
H2301       H  0.45583367  0.70566901  0.21343206     0.13200
H2302       H  0.54350009  0.77853579  0.18813111     0.09700
H2303       H  0.51485270  0.79809501  0.26450630     0.10800
H2304       H  0.47796553  0.87816722  0.18948731     0.16600
C2305       C  0.62232389  0.12884437  0.04173187    -0.01600
C2306       C  0.63588074  0.12789831  0.07164158     0.07000
C2307       C  0.66539817  0.14249580  0.07610525    -0.07600
C2308       C  0.68216069  0.15604220  0.05078639     0.04400
C2309       C  0.67063223  0.15303870  0.01952471    -0.14800
C2310       C  0.63926678  0.14119656  0.01658378    -0.08100
C2311       C  0.61867120  0.11190064  0.09783867     0.05400
C2312       C  0.60987761  0.08045072  0.09428154    -0.09300
C2313       C  0.58911812  0.06559208  0.11526752     0.00400
C2314       C  0.57698658  0.08209253  0.14093978     0.00200
C2315       C  0.58711478  0.11312422  0.14537528    -0.12800
C2316       C  0.60760068  0.12807444  0.12410992     0.00700
C2317       C  0.58125334  0.03324736  0.11018087     0.40000
C2318       C  0.61591111  0.16031899  0.12909801     0.36600
C2319       C  0.59038827  0.11792360  0.03629791     0.36300
C2320       C  0.71118185  0.17244873  0.05792194     0.37100
N2321       N  0.57496487  0.00733322  0.10604387    -0.43700
N2322       N  0.62269915  0.18613434  0.13313622    -0.44100
N2323       N  0.73449194  0.18534116  0.06405331    -0.41500
N2324       N  0.56480633  0.10919345  0.03216412    -0.42900
H2325       H  0.62692020  0.14169998  0.99448125     0.13200
H2326       H  0.67544498  0.14324746  0.09942510     0.09700
H2327       H  0.61858512  0.06769583  0.07434672     0.10800
H2328       H  0.57844318  0.12602429  0.16522144     0.16600
C2329       C  0.61571363  0.90996106  0.13235451    -0.01600
C2330       C  0.60215974  0.89967357  0.10416523     0.07000
C2331       C  0.57026729  0.90553141  0.09811877    -0.07600
C2332       C  0.55221209  0.92266030  0.11919952     0.04400
C2333       C  0.56654101  0.93528585  0.14625605    -0.14800
C2334       C  0.59803235  0.92786138  0.15288280    -0.08100
C2335       C  0.62202534  0.88713628  0.07886644     0.05400
C2336       C  0.63138058  0.85606517  0.07927166    -0.09300
C2337       C  0.65030392  0.84392785  0.05530583     0.00400
C2338       C  0.65981407  0.86332704  0.02954433     0.00200
C2339       C  0.65163558  0.89520011  0.03131687    -0.12800
C2340       C  0.63283103  0.90685657  0.05493304     0.00700
C2341       C  0.66007496  0.81227503  0.05974081     0.40000
C2342       C  0.62466800  0.93934015  0.05384607     0.36600
C2343       C  0.64801390  0.90321790  0.14018696     0.36300
C2344       C  0.51890034  0.92565779  0.11324566     0.37100
N2345       N  0.66751733  0.78689562  0.06445838    -0.43700
N2346       N  0.61811956  0.96533213  0.05280698    -0.44100
N2347       N  0.49212016  0.92758516  0.10865645    -0.41500
N2348       N  0.67381802  0.89756010  0.14654718    -0.42900
H2349       H  0.60917325  0.93674088  0.17383892     0.13200
H2350       H  0.55965719  0.89713988  0.07661247     0.09700
H2351       H  0.62396461  0.84125961  0.09861406     0.10800
H2352       H  0.65873328  0.91115792  0.01285100     0.16600
C2353       C  0.39998789  0.88596258  0.12890310    -0.01600
C2354       C  0.38698009  0.89868578  0.10139310     0.07000
C2355       C  0.38898490  0.93103564  0.09649351    -0.07600
C2356       C  0.40476461  0.95045831  0.11764642     0.04400
C2357       C  0.41880269  0.93756513  0.14453751    -0.14800
C2358       C  0.41570704  0.90542694  0.15014569    -0.08100
C2359       C  0.37050053  0.87953744  0.07732986     0.05400
C2360       C  0.34393368  0.86145035  0.08526446    -0.09300
C2361       C  0.32258238  0.85135273  0.06211245     0.00400
C2362       C  0.32670779  0.86137560  0.03042047     0.00200
C2363       C  0.35742425  0.87256378  0.02270725    -0.12800
C2364       C  0.37863115  0.88244252  0.04564647     0.00700
C2365       C  0.29531758  0.83397788  0.07281722     0.40000
C2366       C  0.40822787  0.89660216  0.03615179     0.36600
C2367       C  0.39797133  0.85311898  0.13574117     0.36300
C2368       C  0.40464561  0.98359340  0.11206329     0.37100
N2369       N  0.27406066  0.82010163  0.08291449    -0.43700
N2370       N  0.43192581  0.90811250  0.02882985    -0.44100
N2371       N  0.40416427  0.01012931  0.10757873    -0.41500
N2372       N  0.39616469  0.82684895  0.14152772    -0.42900
H2373       H  0.42596266  0.89540429  0.17106746     0.13200
H2374       H  0.37791075  0.94120686  0.07604118     0.09700
H2375       H  0.33825306  0.85754350  0.10970344     0.10800
H2376       H  0.36518516  0.87480126  0.99874633     0.16600
C2377       C  0.32465570  0.12633098  0.07211907    -0.01600
C2378       C  0.35516741  0.13724774  0.07947055     0.07000
C2379       C  0.36771797  0.16252195  0.06265668    -0.07600
C2380       C  0.35224163  0.17431014  0.03620988     0.04400
C2381       C  0.32304460  0.16072078  0.02604795    -0.14800
C2382       C  0.30829215  0.13947245  0.04708436    -0.08100
C2383       C  0.37575039  0.12031605  0.10170903     0.05400
C2384       C  0.40357947  0.10716153  0.09040550    -0.09300
C2385       C  0.42308167  0.08948803  0.10986633     0.00400
C2386       C  0.41464837  0.08441057  0.14149256     0.00200
C2387       C  0.38653723  0.09771000  0.15253784    -0.12800
C2388       C  0.36767653  0.11608172  0.13332186     0.00700
C2389       C  0.45173414  0.07765522  0.09665931     0.40000
C2390       C  0.34084593  0.13126957  0.14687990     0.36600
C2391       C  0.31089295  0.09936087  0.08745400     0.36300
C2392       C  0.36881797  0.19822441  0.01875931     0.37100
N2393       N  0.47462940  0.06833088  0.08573191    -0.43700
N2394       N  0.31942573  0.14351826  0.15775826    -0.44100
N2395       N  0.38294828  0.21739449  0.00555325    -0.41500
N2396       N  0.29994264  0.07753775  0.09937751    -0.42900
H2397       H  0.28441994  0.13134474  0.04345057     0.13200
H2398       H  0.39087279  0.17158420  0.06887886     0.09700
H2399       H  0.41015737  0.11072538  0.06615016     0.10800
H2400       H  0.37937635  0.09436978  0.17665259     0.16600
C2401       C  0.80104774  0.22284696  0.52688770    -0.01600
C2402       C  0.78127619  0.23532662  0.50363853     0.07000
C2403       C  0.79398069  0.25585878  0.48120193    -0.07600
C2404       C  0.82615988  0.26338379  0.48110526     0.04400
C2405       C  0.84615744  0.25034311  0.50399854    -0.14800
C2406       C  0.83316574  0.23052968  0.52700016    -0.08100
C2407       C  0.74734363  0.22687136  0.50207252     0.05400
C2408       C  0.72765436  0.23485025  0.52677756    -0.09300
C2409       C  0.69551145  0.22718300  0.52637170     0.00400
C2410       C  0.68176941  0.21129946  0.50019786     0.00200
C2411       C  0.70231702  0.20423389  0.47514527    -0.12800
C2412       C  0.73456180  0.21108587  0.47627784     0.00700
C2413       C  0.67772414  0.23618142  0.55355640     0.40000
C2414       C  0.75426329  0.20101886  0.45085133     0.36600
C2415       C  0.78912719  0.20104670  0.54997506     0.36300
C2416       C  0.83783502  0.28503106  0.45772528     0.37100
N2417       N  0.66421471  0.24346832  0.57577181    -0.43700
N2418       N  0.77012017  0.19273785  0.43064471    -0.44100
N2419       N  0.84720039  0.30241372  0.43904881    -0.41500
N2420       N  0.77940806  0.18357269  0.56838013    -0.42900
H2421       H  0.84833309  0.22011142  0.54448097     0.13200
H2422       H  0.77867713  0.26586395  0.46359676     0.09700
H2423       H  0.73757241  0.24721124  0.54662876     0.10800
H2424       H  0.69362099  0.19404455  0.45376013     0.16600
C2425       C  0.60207586  0.18550997  0.41933153    -0.01600
C2426       C  0.61091902  0.15460790  0.41468436     0.07000
C2427       C  0.63310932  0.14127399  0.43455063    -0.07600
C2428       C  0.64544977  0.15765239  0.46000861     0.04400
C2429       C  0.63590001  0.18879278  0.46611555    -0.14800
C2430       C  0.61439909  0.20219203  0.44463771    -0.08100
C2431       C  0.59518075  0.13481450  0.39101529     0.05400
C2432       C  0.60160575  0.13978186  0.35932833    -0.09300
C2433       C  0.58694840  0.12154881  0.33636257     0.00400
C2434       C  0.56523369  0.09743545  0.34518272     0.00200
C2435       C  0.55899218  0.09281942  0.37723155    -0.12800
C2436       C  0.57360150  0.11128258  0.39997328     0.00700
C2437       C  0.59486640  0.12866248  0.30420161     0.40000
C2438       C  0.56542307  0.10636254  0.43242784     0.36600
C2439       C  0.57858211  0.19986965  0.39973593     0.36300
C2440       C  0.66742982  0.14124170  0.47971993     0.37100
N2441       N  0.60127804  0.13451146  0.27850063    -0.43700
N2442       N  0.55893517  0.10271737  0.45848371    -0.44100
N2443       N  0.68523395  0.12791553  0.49510587    -0.41500
N2444       N  0.55970590  0.21132639  0.38408167    -0.42900
H2445       H  0.60488436  0.22495941  0.44846107     0.13200
H2446       H  0.63997968  0.11740459  0.43073798     0.09700
H2447       H  0.61815268  0.15806938  0.35255287     0.10800
H2448       H  0.54241309  0.07488920  0.38475034     0.16600
C2449       C  0.56903590  0.33686878  0.49293375    -0.01600
C2450       C  0.59603168  0.33112099  0.51081009     0.07000
C2451       C  0.60840866  0.35419587  0.53059621    -0.07600
C2452       C  0.59452081  0.38355924  0.53192591     0.04400
C2453       C  0.56779588  0.38963386  0.51330294    -0.14800
C2454       C  0.55503020  0.36568421  0.49456747    -0.08100
C2455       C  0.61052459  0.30042611  0.50940639     0.05400
C2456       C  0.62968316  0.29351710  0.48398582    -0.09300
C2457       C  0.64018413  0.26331481  0.47918650     0.00400
C2458       C  0.63116720  0.23873920  0.50016790     0.00200
C2459       C  0.61194690  0.24679245  0.52599610    -0.12800
C2460       C  0.60158116  0.27697799  0.53047741     0.00700
C2461       C  0.65947200  0.25850517  0.45186219     0.40000
C2462       C  0.58138198  0.28342843  0.55677169     0.36600
C2463       C  0.55558766  0.31357062  0.47240257     0.36300
C2464       C  0.60870156  0.40703156  0.55160506     0.37100
N2465       N  0.67446157  0.25503296  0.42959723    -0.43700
N2466       N  0.56518521  0.28879533  0.57774305    -0.44100
N2467       N  0.62015027  0.42575175  0.56747823    -0.41500
N2468       N  0.54516384  0.29483656  0.45588852    -0.42900
H2469       H  0.53421319  0.36962774  0.48045237     0.13200
H2470       H  0.62908904  0.34934410  0.54461866     0.09700
H2471       H  0.63582355  0.31177825  0.46736532     0.10800
H2472       H  0.60565933  0.23016691  0.54398647     0.16600
C2473       C  0.29809232  0.98336021  0.71282348    -0.01600
C2474       C  0.27883706  0.00797630  0.72226295     0.07000
C2475       C  0.29178766  0.03175420  0.74083138    -0.07600
C2476       C  0.32374640  0.03190507  0.74910235     0.04400
C2477       C  0.34328873  0.00756271  0.73898626    -0.14800
C2478       C  0.32982388  0.98319301  0.72143432    -0.08100
C2479       C  0.24511917  0.00912108  0.71307201     0.05400
C2480       C  0.22501101  0.98460816  0.72175032    -0.09300
C2481       C  0.19329496  0.98398240  0.71286541     0.00400
C2482       C  0.18021081  0.00895827  0.69511392     0.00200
C2483       C  0.20083998  0.03445157  0.68826326    -0.12800
C2484       C  0.23290653  0.03408449  0.69585120     0.00700
C2485       C  0.17543018  0.95680048  0.72247862     0.40000
C2486       C  0.25306595  0.05918313  0.68476735     0.36600
C2487       C  0.28623218  0.95877366  0.69296982     0.36300
C2488       C  0.33555657  0.05721159  0.76805584     0.37100
N2489       N  0.16258576  0.93419685  0.73039766    -0.43700
N2490       N  0.26935836  0.07904845  0.67565413    -0.44100
N2491       N  0.34476159  0.07765085  0.78317430    -0.41500
N2492       N  0.27662616  0.93912193  0.67707171    -0.42900
H2493       H  0.34445021  0.96453522  0.71308621     0.13200
H2494       H  0.27687592  0.05041201  0.74866301     0.09700
H2495       H  0.23433923  0.96553614  0.73548043     0.10800
H2496       H  0.19243897  0.05536647  0.67723470     0.16600
C2497       C  0.75327803  0.02947735  0.68064948    -0.01600
C2498       C  0.73730539  0.00665365  0.69866113     0.07000
C2499       C  0.75402425  0.98049546  0.70827457    -0.07600
C2500       C  0.78633871  0.97783402  0.70261483     0.04400
C2501       C  0.80393960  0.00287261  0.68843193    -0.14800
C2502       C  0.78598535  0.02750750  0.67573318    -0.08100
C2503       C  0.70304266  0.00839260  0.70699678     0.05400
C2504       C  0.68335513  0.98285389  0.70017772    -0.09300
C2505       C  0.65181873  0.98162998  0.70981218     0.00400
C2506       C  0.63856127  0.00699497  0.72607850     0.00200
C2507       C  0.65822316  0.03292545  0.73234239    -0.12800
C2508       C  0.69025409  0.03345102  0.72379390     0.00700
C2509       C  0.63402412  0.95383006  0.70218304     0.40000
C2510       C  0.70979672  0.05922382  0.73398767     0.36600
C2511       C  0.73646454  0.05464968  0.66607278     0.36300
C2512       C  0.80085394  0.94980346  0.71408521     0.37100
N2513       N  0.62042334  0.93114179  0.69613070    -0.43700
N2514       N  0.72550228  0.07984384  0.74218147    -0.44100
N2515       N  0.81192424  0.92714356  0.72342198    -0.41500
N2516       N  0.72296690  0.07482377  0.65441470    -0.42900
H2517       H  0.79688376  0.04524290  0.66127995     0.13200
H2518       H  0.74179462  0.96210540  0.72105917     0.09700
H2519       H  0.69289267  0.96336642  0.68749518     0.10800
H2520       H  0.64878402  0.05266821  0.74462437     0.16600
C2521       C  0.41762862  0.12487074  0.60425256    -0.01600
C2522       C  0.38435392  0.12382519  0.60251472     0.07000
C2523       C  0.36753979  0.10296201  0.62173185    -0.07600
C2524       C  0.38346874  0.08324275  0.64242889     0.04400
C2525       C  0.41669085  0.08439920  0.64410260    -0.14800
C2526       C  0.43346246  0.10530165  0.62501545    -0.08100
C2527       C  0.36786117  0.13987076  0.57663079     0.05400
C2528       C  0.37187293  0.12795067  0.54688382    -0.09300
C2529       C  0.36066877  0.14338497  0.52054325     0.00400
C2530       C  0.34824218  0.17428207  0.52312079     0.00200
C2531       C  0.33988531  0.18344629  0.55380322    -0.12800
C2532       C  0.34931771  0.16638026  0.58037983     0.00700
C2533       C  0.36032383  0.12433990  0.49287931     0.40000
C2534       C  0.34065489  0.17698500  0.61105851     0.36600
C2535       C  0.43613457  0.14528443  0.58434598     0.36300
C2536       C  0.36543418  0.06062018  0.66018703     0.37100
N2537       N  0.36036705  0.10780550  0.47164954    -0.43700
N2538       N  0.33327140  0.18527105  0.63564045    -0.44100
N2539       N  0.35088122  0.04221686  0.67398144    -0.41500
N2540       N  0.45121126  0.16141236  0.56838660    -0.42900
H2541       H  0.45898150  0.10641705  0.62644297     0.13200
H2542       H  0.34211193  0.10117726  0.61959019     0.09700
H2543       H  0.38358747  0.10582354  0.54434876     0.10800
H2544       H  0.32750668  0.20500836  0.55716605     0.16600
C2545       C  0.63957014  0.14890409  0.56896537    -0.01600
C2546       C  0.60726602  0.14139720  0.56957836     0.07000
C2547       C  0.58738745  0.15418272  0.54711502    -0.07600
C2548       C  0.59893605  0.17464584  0.52428891     0.04400
C2549       C  0.63173829  0.18310916  0.52335857    -0.14800
C2550       C  0.65156895  0.16890825  0.54581182    -0.08100
C2551       C  0.59323698  0.12109625  0.59409133     0.05400
C2552       C  0.59400460  0.13112714  0.62511805    -0.09300
C2553       C  0.57946461  0.11371401  0.64886695     0.00400
C2554       C  0.56273758  0.08578483  0.64149883     0.00200
C2555       C  0.56250340  0.07569241  0.61020615    -0.12800
C2556       C  0.57788015  0.09285196  0.58670769     0.00700
C2557       C  0.58232253  0.12557468  0.68031059     0.40000
C2558       C  0.57856989  0.08061280  0.55533878     0.36600
C2559       C  0.66097138  0.13579723  0.59159070     0.36300
C2560       C  0.57571324  0.18735515  0.50321341     0.37100
N2561       N  0.58506262  0.13510232  0.70544423    -0.43700
N2562       N  0.57950923  0.07084795  0.53020261    -0.44100
N2563       N  0.55641820  0.19726517  0.48696808    -0.41500
N2564       N  0.67792861  0.12531702  0.60991297    -0.42900
H2565       H  0.67677050  0.17259687  0.54536136     0.13200
H2566       H  0.56238160  0.14853688  0.54783818     0.09700
H2567       H  0.60588308  0.15289676  0.63075466     0.10800
H2568       H  0.55068552  0.05407191  0.60401975     0.16600
C2569       C  0.57276515  0.88747995  0.61491054    -0.01600
C2570       C  0.59659261  0.90192612  0.59661467     0.07000
C2571       C  0.60402019  0.93344141  0.60131932    -0.07600
C2572       C  0.58775626  0.95069094  0.62358685     0.04400
C2573       C  0.56355661  0.93630782  0.64126338    -0.14800
C2574       C  0.55641621  0.90480663  0.63688995    -0.08100
C2575       C  0.61157144  0.88517158  0.57052348     0.05400
C2576       C  0.59196096  0.87319550  0.54727901    -0.09300
C2577       C  0.60368136  0.85472752  0.52357068     0.00400
C2578       C  0.63678371  0.84879240  0.52141180     0.00200
C2579       C  0.65662564  0.86318184  0.54395105    -0.12800
C2580       C  0.64423088  0.88043891  0.56868991     0.00700
C2581       C  0.58011829  0.84034469  0.50368211     0.40000
C2582       C  0.66527701  0.89189093  0.59269393     0.36600
C2583       C  0.56463181  0.85493111  0.61150334     0.36300
C2584       C  0.59656833  0.98287739  0.62820725     0.37100
N2585       N  0.56056288  0.82865565  0.48872601    -0.43700
N2586       N  0.68198987  0.90092362  0.61213954    -0.44100
N2587       N  0.60382815  0.00862661  0.63189354    -0.41500
N2588       N  0.55808583  0.82889803  0.60861114    -0.42900
H2589       H  0.53764476  0.89387410  0.65037758     0.13200
H2590       H  0.62207954  0.94469946  0.58714429     0.09700
H2591       H  0.56681087  0.87731680  0.54845617     0.10800
H2592       H  0.68191450  0.86113714  0.54276219     0.16600
C2593       C  0.38409492  0.83925099  0.56801818    -0.01600
C2594       C  0.37169697  0.86838643  0.57573562     0.07000
C2595       C  0.34631500  0.87957693  0.55838781    -0.07600
C2596       C  0.33459500  0.86340968  0.53236232     0.04400
C2597       C  0.34794408  0.83449093  0.52305369    -0.14800
C2598       C  0.37194256  0.82245646  0.54256105    -0.08100
C2599       C  0.38719348  0.88908799  0.59926816     0.05400
C2600       C  0.41802374  0.89980187  0.59341848    -0.09300
C2601       C  0.43380023  0.91960445  0.61434658     0.00400
C2602       C  0.41864118  0.92932581  0.64201164     0.00200
C2603       C  0.38757597  0.91874359  0.64770147    -0.12800
C2604       C  0.37177148  0.89902073  0.62658772     0.00700
C2605       C  0.46595264  0.92841230  0.60722275     0.40000
C2606       C  0.34004110  0.88881325  0.63383516     0.36600
C2607       C  0.41058999  0.82678445  0.58491649     0.36300
C2608       C  0.30914469  0.87781555  0.51540315     0.37100
N2609       N  0.49169762  0.93527750  0.60115848    -0.43700
N2610       N  0.31460467  0.88076178  0.63981270    -0.44100
N2611       N  0.28861375  0.88958354  0.50226165    -0.41500
N2612       N  0.43205530  0.81696815  0.59821480    -0.42900
H2613       H  0.38360546  0.80114116  0.53680439     0.13200
H2614       H  0.33660727  0.90197836  0.56426043     0.09700
H2615       H  0.42990197  0.89253321  0.57229358     0.10800
H2616       H  0.37551944  0.92595720  0.66873653     0.16600
C2617       C  0.51776960  0.27268524  0.77868566    -0.01600
C2618       C  0.49448219  0.25155466  0.78955687     0.07000
C2619       C  0.47095107  0.26298823  0.80929840    -0.07600
C2620       C  0.46841894  0.29497846  0.81590847     0.04400
C2621       C  0.48957370  0.31709163  0.80161693    -0.14800
C2622       C  0.51546088  0.30447148  0.78519733    -0.08100
C2623       C  0.49396806  0.21782902  0.78012976     0.05400
C2624       C  0.52080493  0.19970992  0.78493091    -0.09300
C2625       C  0.52168083  0.16840999  0.77574279     0.00400
C2626       C  0.49483376  0.15387732  0.76179912     0.00200
C2627       C  0.46786698  0.17207234  0.75723765    -0.12800
C2628       C  0.46731529  0.20358623  0.76591457     0.00700
C2629       C  0.55043473  0.15190081  0.78188446     0.40000
C2630       C  0.43928042  0.22096857  0.75908002     0.36600
C2631       C  0.54275622  0.26311635  0.75816723     0.36300
C2632       C  0.44460186  0.30278247  0.83840696     0.37100
N2633       N  0.57361389  0.13888030  0.78673650    -0.43700
N2634       N  0.41676801  0.23481830  0.75352934    -0.44100
N2635       N  0.42536030  0.30774750  0.85681100    -0.41500
N2636       N  0.56283570  0.25580112  0.74161432    -0.42900
H2637       H  0.53285422  0.32009174  0.77483401     0.13200
H2638       H  0.45411515  0.24664821  0.81949724     0.09700
H2639       H  0.54130412  0.21007596  0.79616840     0.10800
H2640       H  0.44704520  0.16174121  0.74657823     0.16600
C2641       C  0.46715251  0.81514936  0.77887100    -0.01600
C2642       C  0.49069245  0.79626702  0.76603993     0.07000
C2643       C  0.51306834  0.80982465  0.74580870    -0.07600
C2644       C  0.51297658  0.84179341  0.73913529     0.04400
C2645       C  0.48980049  0.86094247  0.75254701    -0.14800
C2646       C  0.46677605  0.84704342  0.77194656    -0.08100
C2647       C  0.49270823  0.76252141  0.77399272     0.05400
C2648       C  0.46773436  0.74246495  0.76622736    -0.09300
C2649       C  0.46810608  0.71078964  0.77425683     0.00400
C2650       C  0.49412954  0.69794411  0.79095862     0.00200
C2651       C  0.52008526  0.71843908  0.79653883    -0.12800
C2652       C  0.51913757  0.75019462  0.78921691     0.00700
C2653       C  0.44066130  0.69285538  0.76521464     0.40000
C2654       C  0.54533269  0.76989824  0.79849947     0.36600
C2655       C  0.44394429  0.80256532  0.80031452     0.36300
C2656       C  0.53687125  0.85405816  0.71828347     0.37100
N2657       N  0.41766841  0.68016831  0.75771353    -0.43700
N2658       N  0.56619513  0.78575584  0.80610759    -0.44100
N2659       N  0.55632369  0.86356041  0.70172258    -0.41500
N2660       N  0.42538175  0.79238402  0.81748601    -0.42900
H2661       H  0.44902710  0.86133809  0.78271616     0.13200
H2662       H  0.53093173  0.79536503  0.73545393     0.09700
H2663       H  0.44757969  0.75175881  0.75385830     0.10800
H2664       H  0.54178306  0.71004516  0.80648292     0.16600
C2665       C  0.34092876  0.15565022  0.90896071    -0.01600
C2666       C  0.36730054  0.13683532  0.91345773     0.07000
C2667       C  0.37620942  0.12894737  0.94372997    -0.07600
C2668       C  0.35825839  0.13744537  0.96959364     0.04400
C2669       C  0.33221799  0.15826689  0.96610180    -0.14800
C2670       C  0.32403861  0.16628855  0.93489649    -0.08100
C2671       C  0.38294868  0.12019971  0.88761178     0.05400
C2672       C  0.41411198  0.12822281  0.87963423    -0.09300
C2673       C  0.43129929  0.10967074  0.85913656     0.00400
C2674       C  0.41756373  0.08220967  0.84714396     0.00200
C2675       C  0.38616136  0.07465122  0.85431835    -0.12800
C2676       C  0.36883950  0.09333823  0.87451581     0.00700
C2677       C  0.46261914  0.11955395  0.84986548     0.40000
C2678       C  0.33702954  0.08394493  0.88250556     0.36600
C2679       C  0.32997084  0.16318048  0.87790528     0.36300
C2680       C  0.36470306  0.11892437  0.99701083     0.37100
N2681       N  0.48757441  0.12737224  0.84193183    -0.43700
N2682       N  0.31152287  0.07662943  0.88905971    -0.44100
N2683       N  0.37054782  0.10242943  0.01761161    -0.41500
N2684       N  0.32104691  0.16901937  0.85299812    -0.42900
H2685       H  0.30340981  0.18015135  0.93058445     0.13200
H2686       H  0.39558853  0.11298907  0.94684258     0.09700
H2687       H  0.42508781  0.14874919  0.88975372     0.10800
H2688       H  0.37526984  0.05402620  0.84428470     0.16600
C2689       C  0.40064816  0.91931372  0.90182646    -0.01600
C2690       C  0.36888843  0.91117176  0.89568298     0.07000
C2691       C  0.35660181  0.91710636  0.86584983    -0.07600
C2692       C  0.37526743  0.93093613  0.84230266     0.04400
C2693       C  0.40713223  0.93966790  0.84853980    -0.14800
C2694       C  0.41924690  0.93363806  0.87856419    -0.08100
C2695       C  0.34783076  0.89814023  0.92068671     0.05400
C2696       C  0.33984153  0.91718303  0.94562937    -0.09300
C2697       C  0.32207078  0.90581817  0.97092655     0.00400
C2698       C  0.31318085  0.87355702  0.97298184     0.00200
C2699       C  0.31788321  0.85581842  0.94553278    -0.12800
C2700       C  0.33531229  0.86765598  0.91994671     0.00700
C2701       C  0.31483355  0.92830665  0.99462820     0.40000
C2702       C  0.34075148  0.84783933  0.89344962     0.36600
C2703       C  0.41504031  0.91224375  0.93156962     0.36300
C2704       C  0.36047908  0.93638764  0.81236626     0.37100
N2705       N  0.30943522  0.94778578  0.01228159    -0.43700
N2706       N  0.34504666  0.83211282  0.87206273    -0.44100
N2707       N  0.34812401  0.94030422  0.78854671    -0.41500
N2708       N  0.42681106  0.90635724  0.95525232    -0.42900
H2709       H  0.44360654  0.93957964  0.88378177     0.13200
H2710       H  0.33213741  0.91120272  0.86104809     0.09700
H2711       H  0.34792132  0.94124039  0.94545700     0.10800
H2712       H  0.30850764  0.83243854  0.94370663     0.16600
C2713       C  0.59764238  0.88811120  0.86246364    -0.01600
C2714       C  0.60411825  0.90068754  0.89228373     0.07000
C2715       C  0.59398149  0.93093739  0.89876399    -0.07600
C2716       C  0.57651137  0.94802571  0.87703301     0.04400
C2717       C  0.56892132  0.93506398  0.84763337    -0.14800
C2718       C  0.58024425  0.90529617  0.84054632    -0.08100
C2719       C  0.62080075  0.88325145  0.91765952     0.05400
C2720       C  0.65132515  0.87195506  0.91305292    -0.09300
C2721       C  0.66933244  0.86042584  0.93823772     0.00400
C2722       C  0.65760957  0.86160241  0.96947802     0.00200
C2723       C  0.62530000  0.86926115  0.97259131    -0.12800
C2724       C  0.60734731  0.88018471  0.94758406     0.00700
C2725       C  0.70054230  0.84956410  0.93133705     0.40000
C2726       C  0.57503160  0.88855752  0.95353132     0.36600
C2727       C  0.60783969  0.85748294  0.85386777     0.36300
C2728       C  0.56776815  0.97922915  0.88526844     0.37100
N2729       N  0.72556113  0.84105243  0.92544223    -0.43700
N2730       N  0.54926428  0.89545747  0.95843215    -0.44100
N2731       N  0.56086572  0.00424543  0.89192608    -0.41500
N2732       N  0.61605976  0.83306917  0.84652783    -0.42900
H2733       H  0.57497817  0.89508950  0.81796273     0.13200
H2734       H  0.59972920  0.94130521  0.92116723     0.09700
H2735       H  0.66173358  0.87338193  0.88993981     0.10800
H2736       H  0.61326931  0.86689596  0.99475134     0.16600
C2737       C  0.57980262  0.11270178  0.89049079    -0.01600
C2738       C  0.61281254  0.11215760  0.88664731     0.07000
C2739       C  0.62562642  0.09332091  0.86344299    -0.07600
C2740       C  0.60613484  0.07556398  0.84385257     0.04400
C2741       C  0.57303462  0.07658157  0.84709464    -0.14800
C2742       C  0.56015186  0.09499272  0.87072759    -0.08100
C2743       C  0.63443431  0.12670970  0.90985636     0.05400
C2744       C  0.64938265  0.10702718  0.93089351    -0.09300
C2745       C  0.66762629  0.11872356  0.95538585     0.00400
C2746       C  0.67157397  0.15161291  0.95971772     0.00200
C2747       C  0.65816922  0.17116463  0.93663340    -0.12800
C2748       C  0.63945773  0.15902013  0.91223479     0.00700
C2749       C  0.67936108  0.09576759  0.97712324     0.40000
C2750       C  0.62567406  0.18004606  0.88982545     0.36600
C2751       C  0.56590711  0.13033601  0.91540748     0.36300
C2752       C  0.62072923  0.05492428  0.82187498     0.37100
N2753       N  0.68785465  0.07668337  0.99422292    -0.43700
N2754       N  0.61459221  0.19683840  0.87180746    -0.44100
N2755       N  0.63241778  0.03801785  0.80462900    -0.41500
N2756       N  0.55526386  0.14453746  0.93560367    -0.42900
H2757       H  0.53481473  0.09571714  0.87359661     0.13200
H2758       H  0.65101898  0.09181675  0.86126731     0.09700
H2759       H  0.64565455  0.08209525  0.92887356     0.10800
H2760       H  0.66202906  0.19600522  0.93731388     0.16600
loop_ 
_geom_bond_atom_site_label_1 
_geom_bond_atom_site_label_2 
_geom_bond_distance 
_geom_bond_site_symmetry_2 
_ccdc_geom_bond_type 
O1          Zr37   2.467       .  S
O1           C12   1.298       .  A
O2          Zr36   2.448       .  S
O2           C13   1.295       .  A
O3           Zr9   2.462       .  S
O3           C14   1.297       .  A
O4           Zr9   2.450       .  S
O4           C15   1.294       .  A
O5          Zr39   2.468       .  S
O5           C15   1.298       .  A
O6          Zr38   2.449       .  S
O6           C14   1.294   1_565  A
O7           Zr9   2.422       .  S
O7           C13   1.288       .  A
O8           Zr9   2.421       .  S
O8           C12   1.289       .  A
Zr9          O10   2.345       .  S
Zr9          O11   2.342       .  S
Zr9          O19   2.340       .  S
Zr9          O17   2.332       .  S
O10         Zr36   2.350       .  S
O10         Zr39   2.337       .  S
O11         Zr37   2.357       .  S
O11         Zr38   2.339   1_545  S
C12        C2741   1.481       .  S
C13        C2554   1.492       .  S
C14        C2506   1.503       .  S
C15        C2626   1.508       .  S
H16          O17   0.965       .  S
O17         Zr36   2.336       .  S
O17         Zr38   2.338   1_545  S
H18          O19   0.965       .  S
O19         Zr37   2.338       .  S
O19         Zr39   2.339       .  S
O20         Zr36   2.458   1_565  S
O20          C43   1.296       .  A
O21         Zr37   2.474   1_565  S
O21          C44   1.300       .  A
O22         Zr38   2.428       .  S
O22          C45   1.290       .  A
O23         Zr39   2.420       .  S
O23          C46   1.288       .  A
O24         Zr39   2.407       .  S
O24          C47   1.285       .  A
O25         Zr38   2.432       .  S
O25          C48   1.292       .  A
O26         Zr40   2.453       .  S
O26          C49   1.295       .  A
O27         Zr40   2.431       .  S
O27          C50   1.292   1_565  A
O28         Zr38   2.440       .  S
O28          C49   1.292       .  A
O29         Zr39   2.439       .  S
O29          C50   1.292       .  A
O30         Zr36   2.442   1_565  S
O30          C45   1.292       .  A
O31         Zr37   2.458   1_565  S
O31          C48   1.297       .  A
O32         Zr37   2.466       .  S
O32          C47   1.297       .  A
O33         Zr36   2.455       .  S
O33          C46   1.295       .  A
O34         Zr40   2.441       .  S
O34          C43   1.293       .  A
O35         Zr40   2.434       .  S
O35          C44   1.291       .  A
Zr36         O42   2.351   1_545  S
Zr36         O54   2.335       .  S
Zr37         O41   2.341       .  S
Zr37         O52   2.347   1_545  S
Zr38         O42   2.342       .  S
Zr38         O52   2.349       .  S
Zr39         O41   2.340       .  S
Zr39         O54   2.348       .  S
Zr40         O41   2.341   1_565  S
Zr40         O42   2.337       .  S
Zr40         O54   2.348   1_565  S
Zr40         O52   2.343       .  S
C43        C2602   1.493       .  S
C44        C2693   1.500       .  S
C45        C2573   1.465       .  S
C46        C2525   1.471       .  S
C47        C2674   1.468       .  S
C48        C2717   1.491       .  S
C49        C2645   1.491       .  S
C50        C2477   1.484       .  S
H51          O52   0.967       .  S
H53          O54   0.968       .  S
C55        C2410   1.571       .  S
C55        C2429   1.569       .  S
C55        C2458   1.565       .  S
C55        C2549   1.568       .  S
O56         Zr92   2.413       .  S
O56          C67   1.286       .  A
O57         Zr91   2.438       .  S
O57          C68   1.293       .  A
O58         Zr64   2.454       .  S
O58          C69   1.294       .  A
O59         Zr64   2.443   1_565  S
O59          C70   1.294       .  A
O60         Zr94   2.425       .  S
O60          C70   1.290       .  A
O61         Zr93   2.414       .  S
O61          C69   1.287       .  A
O62         Zr64   2.449   1_565  S
O62          C68   1.294       .  A
O63         Zr64   2.454       .  S
O63          C67   1.297       .  A
Zr64         O65   2.354   1_545  S
Zr64         O66   2.341       .  S
Zr64         O74   2.340       .  S
Zr64         O72   2.329       .  S
O65         Zr91   2.342       .  S
O65         Zr94   2.343       .  S
O66         Zr92   2.338       .  S
O66         Zr93   2.331       .  S
C67        C2434   1.495       .  S
C68        C2194   1.497       .  S
C69        C2237   1.467       .  S
C70        C2218   1.482       .  S
H71          O72   0.960       .  S
O72         Zr91   2.335   1_545  S
O72         Zr93   2.324       .  S
H73          O74   0.969       .  S
O74         Zr92   2.342       .  S
O74         Zr94   2.337   1_545  S
O75         Zr91   2.427       .  S
O75          C98   1.290       .  A
O76         Zr92   2.424       .  S
O76          C99   1.289       .  A
O77         Zr93   2.456       .  S
O77         C100   1.295       .  A
O78         Zr94   2.445       .  S
O78         C101   1.292       .  A
O79         Zr94   2.447       .  S
O79         C102   1.293   1_565  A
O80         Zr93   2.435       .  S
O80         C103   1.291       .  A
O81         Zr95   2.475       .  S
O81         C104   1.299       .  A
O82         Zr95   2.466   1_565  S
O82         C105   1.298       .  A
O83         Zr93   2.401       .  S
O83         C104   1.286       .  A
O84         Zr94   2.422       .  S
O84         C105   1.290       .  A
O85         Zr91   2.435       .  S
O85         C100   1.292   1_565  A
O86         Zr92   2.447       .  S
O86         C103   1.293       .  A
O87         Zr92   2.449       .  S
O87         C102   1.294       .  A
O88         Zr91   2.448       .  S
O88         C101   1.293       .  A
O89         Zr95   2.451   1_565  S
O89          C98   1.296       .  A
O90         Zr95   2.473       .  S
O90          C99   1.300       .  A
Zr91         O97   2.345   1_565  S
Zr91        O109   2.333       .  S
Zr92         O96   2.339       .  S
Zr92        O107   2.343       .  S
Zr93         O97   2.336       .  S
Zr93        O107   2.347       .  S
Zr94         O96   2.345   1_565  S
Zr94        O109   2.337       .  S
Zr95         O96   2.353       .  S
Zr95         O97   2.355       .  S
Zr95        O109   2.344   1_545  S
Zr95        O107   2.341       .  S
C98        C2357   1.477       .  S
C99        C2314   1.492       .  S
C100       C2146   1.498       .  S
C101       C2290   1.478       .  S
C102       C2170   1.498       .  S
C103       C2266   1.488       .  S
C104       C2386   1.494       .  S
C105       C2333   1.486       .  S
H106        O107   0.966       .  S
H108        O109   0.966       .  S
C110       C2098   1.585       .  S
C110       C2122   1.572       .  S
C110       C2362   1.575       .  S
C110       C2698   1.587   1_554  S
C111       C2045   1.579       .  S
C111       C2069   1.582   1_556  S
C111       C2338   1.574   1_556  S
C111       C2722   1.585       .  S
C112       C2002   1.574       .  S
C112       C2021   1.577       .  S
C112       C2213   1.566       .  S
C112       C2578   1.569       .  S
C113       C1954   1.578       .  S
C113       C1973   1.582       .  S
C113       C2381   1.572   1_556  S
C113       C2669   1.576       .  S
C114       C1906   1.584       .  S
C114       C1925   1.578       .  S
C114       C2309   1.583   1_556  S
C114       C2746   1.573       .  S
C115       C1853   1.589       .  S
C115       C1882   1.586       .  S
C115       C2242   1.567       .  S
C115       C2530   1.576       .  S
C116       C1810   1.577       .  S
C116       C1834   1.574       .  S
C116       C2189   1.566       .  S
C116       C2597   1.578       .  S
O117       Zr153   2.456       .  S
O117        C128   1.295       .  A
O118       Zr152   2.441       .  S
O118        C129   1.292   1_455  A
O119       Zr125   2.388       .  S
O119        C130   1.283       .  A
O120       Zr125   2.403       .  S
O120        C131   1.284       .  A
O121       Zr155   2.464       .  S
O121        C131   1.298       .  A
O122       Zr154   2.448       .  S
O122        C130   1.294       .  A
O123       Zr125   2.435       .  S
O123        C129   1.292       .  A
O124       Zr125   2.445       .  S
O124        C128   1.293       .  A
Zr125       O126   2.340       .  S
Zr125       O127   2.339       .  S
Zr125       O135   2.317       .  S
Zr125       O133   2.330       .  S
O126       Zr152   2.336   1_655  S
O126       Zr155   2.343       .  S
O127       Zr153   2.342       .  S
O127       Zr154   2.352       .  S
C128       C1997   1.491       .  S
C129       C1589   1.488       .  S
C130       C1666   1.458       .  S
C131       C1762   1.493       .  S
H132        O133   0.967       .  S
O133       Zr152   2.332   1_655  S
O133       Zr154   2.333       .  S
H134        O135   0.962       .  S
O135       Zr153   2.333       .  S
O135       Zr155   2.329       .  S
O136       Zr152   2.422       .  S
O136        C159   1.288       .  A
O137       Zr153   2.448       .  S
O137        C160   1.294       .  A
O138       Zr154   2.464   1_455  S
O138        C161   1.298       .  A
O139       Zr155   2.447   1_455  S
O139        C162   1.295       .  A
O140       Zr155   2.427       .  S
O140        C163   1.292       .  A
O141       Zr154   2.462       .  S
O141        C164   1.297       .  A
O142       Zr156   2.427       .  S
O142        C165   1.290       .  A
O143       Zr156   2.418       .  S
O143        C166   1.288       .  A
O144       Zr154   2.448   1_455  S
O144        C165   1.296       .  A
O145       Zr155   2.453   1_455  S
O145        C166   1.296       .  A
O146       Zr152   2.409       .  S
O146        C161   1.287       .  A
O147       Zr153   2.439       .  S
O147        C164   1.294       .  A
O148       Zr153   2.438       .  S
O148        C163   1.292       .  A
O149       Zr152   2.437       .  S
O149        C162   1.291       .  A
O150       Zr156   2.445       .  S
O150        C159   1.292       .  A
O151       Zr156   2.451       .  S
O151        C160   1.295   1_455  A
Zr152       O158   2.342       .  S
Zr152       O170   2.333       .  S
Zr153       O157   2.350       .  S
Zr153       O168   2.346       .  S
Zr154       O158   2.342   1_655  S
Zr154       O168   2.341       .  S
Zr155       O157   2.357       .  S
Zr155       O170   2.334   1_655  S
Zr156       O157   2.345   1_455  S
Zr156       O158   2.334       .  S
Zr156       O170   2.345       .  S
Zr156       O168   2.343   1_455  S
C159       C1805   1.465       .  S
C160       C1565   1.490       .  S
C161       C1637   1.475       .  S
C162       C1781   1.494       .  S
C163       C1733   1.491       .  S
C164       C1685   1.506       .  S
C165       C1613   1.486       .  S
C166       C1709   1.476       .  S
H167        O168   0.967       .  S
H169        O170   0.967       .  S
O171       Zr207   2.429       .  S
O171        C182   1.290       .  A
O172       Zr206   2.454       .  S
O172        C183   1.295   1_455  A
O173       Zr179   2.440       .  S
O173        C184   1.292       .  A
O174       Zr179   2.424       .  S
O174        C185   1.289       .  A
O175       Zr209   2.449       .  S
O175        C185   1.294       .  A
O176       Zr208   2.460       .  S
O176        C184   1.295       .  A
O177       Zr179   2.428       .  S
O177        C183   1.290       .  A
O178       Zr179   2.431       .  S
O178        C182   1.291       .  A
Zr179       O180   2.340       .  S
Zr179       O181   2.335       .  S
Zr179       O189   2.339       .  S
Zr179       O187   2.337       .  S
O180       Zr206   2.340   1_655  S
O180       Zr209   2.339       .  S
O181       Zr207   2.336       .  S
O181       Zr208   2.328       .  S
C182       C2405   1.477       .  S
C183       C1354   1.491       .  S
C184       C1493   1.479       .  S
C185       C1397   1.467       .  S
H186        O187   0.967       .  S
O187       Zr206   2.345   1_655  S
O187       Zr208   2.354       .  S
H188        O189   0.966       .  S
O189       Zr207   2.349       .  S
O189       Zr209   2.354       .  S
O190       Zr206   2.442       .  S
O190        C213   1.293       .  A
O191       Zr207   2.458       .  S
O191        C214   1.295       .  A
O192       Zr208   2.425   1_455  S
O192        C215   1.291       .  A
O193       Zr209   2.503   1_455  S
O193        C216   1.305       .  A
O194       Zr209   2.485       .  S
O194        C217   1.302       .  A
O195       Zr208   2.444       .  S
O195        C218   1.293       .  A
O196       Zr210   2.427       .  S
O196        C219   1.291       .  A
O197       Zr210   2.435       .  S
O197        C220   1.293       .  A
O198       Zr208   2.451   1_455  S
O198        C219   1.295       .  A
O199       Zr209   2.425   1_455  S
O199        C220   1.290       .  A
O200       Zr206   2.434       .  S
O200        C215   1.291       .  A
O201       Zr207   2.436       .  S
O201        C218   1.292       .  A
O202       Zr207   2.419       .  S
O202        C217   1.289       .  A
O203       Zr206   2.429       .  S
O203        C216   1.291       .  A
O204       Zr210   2.453       .  S
O204        C213   1.295       .  A
O205       Zr210   2.441       .  S
O205        C214   1.293   1_455  A
Zr206       O212   2.333       .  S
Zr206       O224   2.350       .  S
Zr207       O211   2.331       .  S
Zr207       O222   2.334       .  S
Zr208       O212   2.338   1_655  S
Zr208       O222   2.353       .  S
Zr209       O211   2.345       .  S
Zr209       O224   2.361   1_655  S
Zr210       O211   2.329   1_455  S
Zr210       O212   2.330       .  S
Zr210       O224   2.346       .  S
Zr210       O222   2.348   1_455  S
C213       C1858   1.492       .  S
C214       C1325   1.493       .  S
C215       C1474   1.489       .  S
C216       C1426   1.510       .  S
C217       C1373   1.490       .  S
C218       C1522   1.498       .  S
C219       C1541   1.485       .  S
C220       C1445   1.488       .  S
H221        O222   0.964       .  S
H223        O224   0.964       .  S
C225       C1282   1.571       .  S
C225       C1301   1.571       .  S
C225       C1402   1.568       .  S
C225       C1661   1.556       .  S
C226       C1229   1.566       .  S
C226       C1253   1.579       .  S
C226       C1421   1.584       .  S
C226       C1642   1.581       .  S
C227       C1210   1.569       .  S
C227       C1517   1.579       .  S
C227       C1738   1.567   1_545  S
C227       C2165   1.576       .  S
C228       C1181   1.594       .  S
C228       C1498   1.584       .  S
C228       C1757   1.570   1_545  S
C228       C2501   1.583       .  S
C229       C1133   1.586       .  S
C229       C1162   1.589       .  S
C229       C1378   1.582       .  S
C229       C1690   1.570       .  S
C230       C1090   1.566       .  S
C230       C1114   1.575       .  S
C230       C1450   1.574       .  S
C230       C1618   1.569       .  S
C231       C1061   1.579       .  S
C231       C1546   1.571       .  S
C231       C1714   1.579   1_545  S
C231       C2141   1.578       .  S
C232       C1037   1.568       .  S
C232       C1469   1.570       .  S
C232       C1786   1.568   1_545  S
C232       C2482   1.574       .  S
O233       Zr269   2.458       .  S
O233        C244   1.296       .  A
O234       Zr268   2.438       .  S
O234        C245   1.292       .  A
O235       Zr241   2.435       .  S
O235        C246   1.291       .  A
O236       Zr241   2.436       .  S
O236        C247   1.294       .  A
O237       Zr271   2.421   1_554  S
O237        C247   1.289       .  A
O238       Zr270   2.461   1_554  S
O238        C246   1.296       .  A
O239       Zr241   2.449       .  S
O239        C245   1.294       .  A
O240       Zr241   2.444       .  S
O240        C244   1.292   1_554  A
Zr241       O242   2.331       .  S
Zr241       O243   2.335   1_554  S
Zr241       O251   2.341   1_554  S
Zr241       O249   2.342       .  S
O242       Zr268   2.335       .  S
O242       Zr271   2.348   1_554  S
O243       Zr269   2.327       .  S
O243       Zr270   2.337       .  S
C244       C2050   1.505       .  S
C245       C1138   1.496       .  S
C246        C869   1.476       .  S
C247       C1013   1.485       .  S
H248        O249   0.970       .  S
O249       Zr268   2.340       .  S
O249       Zr270   2.364   1_554  S
H250        O251   0.965       .  S
O251       Zr269   2.333       .  S
O251       Zr271   2.356       .  S
O252       Zr268   2.431       .  S
O252        C275   1.291   1_554  A
O253       Zr269   2.437       .  S
O253        C276   1.293       .  A
O254       Zr270   2.420   1_554  S
O254        C277   1.289       .  A
O255       Zr271   2.462   1_554  S
O255        C278   1.298       .  A
O256       Zr271   2.492       .  S
O256        C279   1.303       .  A
O257       Zr270   2.434       .  S
O257        C280   1.292       .  A
O258       Zr272   2.416       .  S
O258        C281   1.289       .  A
O259       Zr272   2.424       .  S
O259        C282   1.289       .  A
O260       Zr270   2.492       .  S
O260        C281   1.302       .  A
O261       Zr271   2.467       .  S
O261        C282   1.298       .  A
O262       Zr268   2.455       .  S
O262        C277   1.296       .  A
O263       Zr269   2.417       .  S
O263        C280   1.288       .  A
O264       Zr269   2.421       .  S
O264        C279   1.289       .  A
O265       Zr268   2.449       .  S
O265        C278   1.295       .  A
O266       Zr272   2.459       .  S
O266        C275   1.295       .  A
O267       Zr272   2.435       .  S
O267        C276   1.292       .  A
Zr268       O274   2.343   1_554  S
Zr268       O286   2.349   1_554  S
Zr269       O273   2.344       .  S
Zr269       O284   2.343       .  S
Zr270       O274   2.339       .  S
Zr270       O284   2.343       .  S
Zr271       O273   2.327       .  S
Zr271       O286   2.357       .  S
Zr272       O273   2.344       .  S
Zr272       O274   2.332       .  S
Zr272       O286   2.337       .  S
Zr272       O284   2.347       .  S
C275       C1901   1.504       .  S
C276       C1277   1.486       .  S
C277        C845   1.486       .  S
C278        C941   1.502       .  S
C279        C989   1.502       .  S
C280        C898   1.481       .  S
C281        C917   1.510       .  S
C282        C965   1.487       .  S
H283        O284   0.967       .  S
H285        O286   0.965       .  S
O287       Zr323   2.457       .  S
O287        C298   1.296   1_556  A
O288       Zr322   2.442       .  S
O288        C299   1.293       .  A
O289       Zr295   2.433       .  S
O289        C300   1.291       .  A
O290       Zr295   2.447       .  S
O290        C301   1.294       .  A
O291       Zr325   2.468   1_554  S
O291        C301   1.298       .  A
O292       Zr324   2.461   1_554  S
O292        C300   1.298       .  A
O293       Zr295   2.431       .  S
O293        C299   1.291       .  A
O294       Zr295   2.451       .  S
O294        C298   1.294       .  A
Zr295       O296   2.339       .  S
Zr295       O297   2.345       .  S
Zr295       O305   2.332   1_554  S
Zr295       O303   2.352       .  S
O296       Zr322   2.352       .  S
O296       Zr325   2.351   1_554  S
O297       Zr323   2.340   1_554  S
O297       Zr324   2.358   1_554  S
C298       C2093   1.502       .  S
C299       C1085   1.488       .  S
C300        C706   1.496       .  S
C301        C797   1.505       .  S
H302        O303   0.945       .  S
O303       Zr322   2.343       .  S
O303       Zr324   2.342   1_554  S
H304        O305   0.969       .  S
O305       Zr323   2.343       .  S
O305       Zr325   2.339       .  S
O306       Zr322   2.459       .  S
O306        C329   1.296   1_554  A
O307       Zr323   2.455       .  S
O307        C330   1.295       .  A
O308       Zr324   2.452   1_554  S
O308        C331   1.295       .  A
O309       Zr325   2.458   1_554  S
O309        C332   1.297       .  A
O310       Zr325   2.458       .  S
O310        C333   1.297       .  A
O311       Zr324   2.446       .  S
O311        C334   1.293       .  A
O312       Zr326   2.405       .  S
O312        C335   1.287       .  A
O313       Zr326   2.421       .  S
O313        C336   1.288       .  A
O314       Zr324   2.469       .  S
O314        C335   1.298       .  A
O315       Zr325   2.463       .  S
O315        C336   1.296       .  A
O316       Zr322   2.448       .  S
O316        C331   1.295       .  A
O317       Zr323   2.437       .  S
O317        C334   1.292       .  A
O318       Zr323   2.422       .  S
O318        C333   1.289       .  A
O319       Zr322   2.410       .  S
O319        C332   1.288       .  A
O320       Zr326   2.455       .  S
O320        C329   1.295       .  A
O321       Zr326   2.436       .  S
O321        C330   1.293       .  A
Zr322       O328   2.336   1_554  S
Zr322       O340   2.346   1_554  S
Zr323       O327   2.347       .  S
Zr323       O338   2.334       .  S
Zr324       O328   2.354       .  S
Zr324       O338   2.328       .  S
Zr325       O327   2.352       .  S
Zr325       O340   2.340       .  S
Zr326       O327   2.339       .  S
Zr326       O328   2.346       .  S
Zr326       O340   2.326       .  S
Zr326       O338   2.336       .  S
C329       C1949   1.502       .  S
C330       C1234   1.491       .  S
C331        C677   1.505       .  S
C332        C821   1.484       .  S
C333        C773   1.498       .  S
C334        C725   1.471       .  S
C335        C653   1.492       .  S
C336        C749   1.478       .  S
H337        O338   0.968       .  S
H339        O340   0.973       .  S
C341        C629   1.573       .  S
C341        C730   1.576       .  S
C341        C994   1.579   1_455  S
C341       C1594   1.578       .  S
C342        C605   1.568       .  S
C342        C658   1.590   1_655  S
C342        C970   1.590       .  S
C342       C1349   1.604       .  S
C343        C581   1.565       .  S
C343        C778   1.568       .  S
C343        C893   1.572       .  S
C343       C2650   1.577       .  S
C344        C562   1.573       .  S
C344        C802   1.581       .  S
C344        C874   1.578       .  S
C344       C2285   1.578       .  S
C345        C533   1.570       .  S
C345        C682   1.582   1_655  S
C345        C946   1.579       .  S
C345       C1330   1.577       .  S
C346        C509   1.576       .  S
C346        C701   1.577   1_655  S
C346       C1018   1.571       .  S
C346       C1570   1.571       .  S
C347        C490   1.586       .  S
C347        C754   1.583       .  S
C347        C922   1.583       .  S
C347       C2621   1.577       .  S
C348        C461   1.577       .  S
C348        C826   1.580       .  S
C348        C850   1.573       .  S
C348       C2261   1.563       .  S
O349       Zr385   2.471       .  S
O349        C360   1.297       .  A
O350       Zr384   2.447       .  S
O350        C361   1.292       .  A
O351       Zr357   2.484       .  S
O351        C362   1.300       .  A
O352       Zr357   2.459       .  S
O352        C363   1.295       .  A
O353       Zr387   2.436       .  S
O353        C363   1.292       .  A
O354       Zr386   2.409       .  S
O354        C362   1.287       .  A
O355       Zr357   2.426       .  S
O355        C361   1.289       .  A
O356       Zr357   2.374       .  S
O356        C360   1.282       .  A
Zr357       O358   2.333       .  S
Zr357       O359   2.343       .  S
Zr357       O367   2.353       .  S
Zr357       O365   2.327       .  S
O358       Zr384   2.338       .  S
O358       Zr387   2.340       .  S
O359       Zr385   2.344       .  S
O359       Zr386   2.329       .  S
C360       C2453   1.478       .  S
C361        C466   1.468       .  S
C362       C1877   1.491       .  S
C363       C1157   1.475       .  S
H364        O365   0.970       .  S
O365       Zr384   2.350       .  S
O365       Zr386   2.353       .  S
H366        O367   0.966       .  S
O367       Zr385   2.331       .  S
O367       Zr387   2.336       .  S
O368       Zr384   2.466       .  S
O368        C391   1.296       .  A
O369       Zr385   2.455       .  S
O369        C392   1.294       .  A
O370       Zr386   2.452       .  S
O370        C393   1.295       .  A
O371       Zr387   2.457       .  S
O371        C394   1.295       .  A
O372       Zr387   2.467       .  S
O372        C395   1.297       .  A
O373       Zr386   2.499       .  S
O373        C396   1.303       .  A
O374       Zr388   2.491       .  S
O374        C397   1.301       .  A
O375       Zr388   2.458       .  S
O375        C398   1.295       .  A
O376       Zr386   2.390       .  S
O376        C397   1.284       .  A
O377       Zr387   2.424       .  S
O377        C398   1.292       .  A
O378       Zr384   2.412       .  S
O378        C393   1.289       .  A
O379       Zr385   2.392       .  S
O379        C396   1.284       .  A
O380       Zr385   2.420       .  S
O380        C395   1.288       .  A
O381       Zr384   2.427       .  S
O381        C394   1.290       .  A
O382       Zr388   2.399       .  S
O382        C391   1.285       .  A
O383       Zr388   2.388       .  S
O383        C392   1.285       .  A
Zr384       O390   2.341       .  S
Zr384       O402   2.329       .  S
Zr385       O389   2.334       .  S
Zr385       O400   2.347       .  S
Zr386       O390   2.349       .  S
Zr386       O400   2.334       .  S
Zr387       O389   2.337       .  S
Zr387       O402   2.347       .  S
Zr388       O389   2.347       .  S
Zr388       O390   2.325       .  S
Zr388       O402   2.343       .  S
Zr388       O400   2.338       .  S
C391       C1829   1.467       .  S
C392        C586   1.469       .  S
C393       C1109   1.476       .  S
C394        C557   1.472       .  S
C395       C1306   1.480       .  S
C396        C485   1.487       .  S
C397       C1258   1.486       .  S
C398       C2026   1.491       .  S
H399        O400   0.966       .  S
H401        O402   0.966       .  S
O403       Zr439   2.488       .  S
O403        C414   1.300       .  A
O404       Zr438   2.460   1_455  S
O404        C415   1.296       .  A
O405       Zr411   2.472       .  S
O405        C416   1.298       .  A
O406       Zr411   2.473   1_545  S
O406        C417   1.298       .  A
O407       Zr441   2.438       .  S
O407        C417   1.293   1_554  A
O408       Zr440   2.401       .  S
O408        C416   1.287   1_655  A
O409       Zr411   2.396   1_545  S
O409        C415   1.285       .  A
O410       Zr411   2.395   1_554  S
O410        C414   1.284       .  A
Zr411       O412   2.335   1_565  S
Zr411       O413   2.334   1_556  S
Zr411       O421   2.349   1_566  S
Zr411       O419   2.348   1_455  S
O412       Zr438   2.340   1_455  S
O412       Zr441   2.339   1_556  S
O413       Zr439   2.336       .  S
O413       Zr440   2.343   1_454  S
C414       C2117   1.471       .  S
C415       C1042   1.474       .  S
C416        C634   1.482       .  S
C417       C1978   1.492       .  S
H418        O419   0.967       .  S
O419       Zr438   2.344   1_565  S
O419       Zr440   2.334       .  S
H420        O421   0.965       .  S
O421       Zr439   2.347   1_545  S
O421       Zr441   2.332       .  S
O422       Zr438   2.485       .  S
O422        C445   1.300       .  A
O423       Zr439   2.475   1_655  S
O423        C446   1.298       .  A
O424       Zr440   2.501       .  S
O424        C447   1.303       .  A
O425       Zr441   2.464   1_556  S
O425        C448   1.296       .  A
O426       Zr441   2.484       .  S
O426        C449   1.300       .  A
O427       Zr440   2.469   1_554  S
O427        C450   1.297       .  A
O428       Zr442   2.489       .  S
O428        C451   1.301   1_545  A
O429       Zr442   2.484       .  S
O429        C452   1.300       .  A
O430       Zr440   2.401       .  S
O430        C451   1.287   1_556  A
O431       Zr441   2.405       .  S
O431        C452   1.287   1_455  A
O432       Zr438   2.399       .  S
O432        C447   1.286   1_545  A
O433       Zr439   2.404   1_655  S
O433        C450   1.286       .  A
O434       Zr439   2.392   1_545  S
O434        C449   1.282       .  A
O435       Zr438   2.397   1_455  S
O435        C448   1.286       .  A
O436       Zr442   2.393       .  S
O436        C445   1.283   1_554  A
O437       Zr442   2.395       .  S
O437        C446   1.285   1_545  A
Zr438       O444   2.327       .  S
Zr438       O456   2.336   1_556  S
Zr439       O443   2.335   1_465  S
Zr439       O454   2.352   1_455  S
Zr440       O444   2.333   1_565  S
Zr440       O454   2.352   1_556  S
Zr441       O443   2.337   1_455  S
Zr441       O456   2.350   1_455  S
Zr442       O443   2.334       .  S
Zr442       O444   2.335   1_554  S
Zr442       O456   2.342       .  S
Zr442       O454   2.350   1_545  S
C445       C1930   1.473       .  S
C446       C1205   1.495       .  S
C447       C1186   1.499       .  S
C448        C610   1.472       .  S
C449       C1066   1.472       .  S
C450        C514   1.469       .  S
C451       C2074   1.497       .  S
C452        C538   1.485       .  S
H453        O454   0.968       .  S
H455        O456   0.965       .  S
C457        C458   1.401       .  A
C457        C462   1.400       .  A
C457        C471   1.444       .  S
C458        C463   1.481       .  S
C458        C459   1.395       .  A
C459        C460   1.400       .  A
C459        H478   1.086       .  S
C460        C461   1.435       .  A
C460        C472   1.443       .  S
C461        C462   1.424       .  A
C462        H477   1.084       .  S
C463        C464   1.404       .  A
C463        C468   1.410       .  A
C464        C465   1.400       .  A
C464        H479   1.085       .  S
C465        C466   1.408       .  A
C465        C469   1.444       .  S
C466        C467   1.403       .  A
C467        C468   1.400       .  A
C467        H480   1.085       .  S
C468        C470   1.444       .  S
C469        N473   1.157       .  T
C470        N474   1.157       .  T
C471        N476   1.157       .  T
C472        N475   1.158       .  T
C481        C482   1.415       .  A
C481        C486   1.412       .  A
C481        C495   1.442       .  S
C482        C487   1.495       .  S
C482        C483   1.400       .  A
C483        C484   1.396       .  A
C483        H502   1.085       .  S
C484        C485   1.417       .  A
C484        C496   1.445       .  S
C485        C486   1.407       .  A
C486        H501   1.084       .  S
C487        C488   1.392       .  A
C487        C492   1.407       .  A
C488        C489   1.400       .  A
C488        H503   1.087       .  S
C489        C490   1.442       .  A
C489        C493   1.441       .  S
C490        C491   1.423       .  A
C491        C492   1.408       .  A
C491        H504   1.083       .  S
C492        C494   1.443       .  S
C493        N497   1.157       .  T
C494        N498   1.157       .  T
C495        N500   1.157       .  T
C496        N499   1.157       .  T
C505        C506   1.398       .  A
C505        C510   1.395       .  A
C505        C519   1.445       .  S
C506        C511   1.477       .  S
C506        C507   1.397   1_655  A
C507        C508   1.402       .  A
C507        H526   1.085       .  S
C508        C509   1.430   1_455  A
C508        C520   1.444       .  S
C509        C510   1.423       .  A
C510        H525   1.079       .  S
C511        C512   1.401       .  A
C511        C516   1.409       .  A
C512        C513   1.399       .  A
C512        H527   1.085       .  S
C513        C514   1.410       .  A
C513        C517   1.445       .  S
C514        C515   1.403       .  A
C515        C516   1.401       .  A
C515        H528   1.082       .  S
C516        C518   1.444   1_655  S
C517        N521   1.157       .  T
C518        N522   1.157       .  T
C519        N524   1.157       .  T
C520        N523   1.157       .  T
C529        C530   1.412   1_455  A
C529        C534   1.402       .  A
C529        C543   1.445       .  S
C530        C535   1.493       .  S
C530        C531   1.396       .  A
C531        C532   1.404       .  A
C531        H550   1.085       .  S
C532        C533   1.436       .  A
C532        C544   1.445       .  S
C533        C534   1.413   1_655  A
C534        H549   1.079       .  S
C535        C536   1.397       .  A
C535        C540   1.416       .  A
C536        C537   1.393       .  A
C536        H551   1.086   1_655  S
C537        C538   1.417       .  A
C537        C541   1.442   1_655  S
C538        C539   1.406       .  A
C539        C540   1.410       .  A
C539        H552   1.085       .  S
C540        C542   1.443       .  S
C541        N545   1.156       .  T
C542        N546   1.157       .  T
C543        N548   1.157       .  T
C544        N547   1.158       .  T
C553        C554   1.411       .  A
C553        C558   1.401       .  A
C553        C567   1.445       .  S
C554        C559   1.484       .  S
C554        C555   1.403       .  A
C555        C556   1.403       .  A
C555        H574   1.084       .  S
C556        C557   1.410       .  A
C556        C568   1.444       .  S
C557        C558   1.403       .  A
C558        H573   1.085       .  S
C559        C560   1.398       .  A
C559        C564   1.402       .  A
C560        C561   1.402       .  A
C560        H575   1.085       .  S
C561        C562   1.431       .  A
C561        C565   1.444       .  S
C562        C563   1.421       .  A
C563        C564   1.400       .  A
C563        H576   1.083       .  S
C564        C566   1.443       .  S
C565        N569   1.158       .  T
C566        N570   1.157       .  T
C567        N572   1.157       .  T
C568        N571   1.157       .  T
C577        C578   1.403       .  A
C577        C582   1.395       .  A
C577        C591   1.446       .  S
C578        C583   1.478       .  S
C578        C579   1.396       .  A
C579        C580   1.397       .  A
C579        H598   1.086       .  S
C580        C581   1.432       .  A
C580        C592   1.443       .  S
C581        C582   1.421       .  A
C582        H597   1.084       .  S
C583        C584   1.408       .  A
C583        C588   1.408       .  A
C584        C585   1.402       .  A
C584        H599   1.085       .  S
C585        C586   1.408       .  A
C585        C589   1.444       .  S
C586        C587   1.405       .  A
C587        C588   1.388       .  A
C587        H600   1.086       .  S
C588        C590   1.446       .  S
C589        N593   1.157       .  T
C590        N594   1.157       .  T
C591        N596   1.157       .  T
C592        N595   1.158       .  T
C601        C602   1.413   1_655  A
C601        C606   1.406       .  A
C601        C615   1.444       .  S
C602        C607   1.493       .  S
C602        C603   1.398       .  A
C603        C604   1.395       .  A
C603        H622   1.085       .  S
C604        C605   1.436   1_455  A
C604        C616   1.448       .  S
C605        C606   1.416       .  A
C606        H621   1.081       .  S
C607        C608   1.405       .  A
C607        C612   1.417       .  A
C608        C609   1.395       .  A
C608        H623   1.085       .  S
C609        C610   1.411       .  A
C609        C613   1.446       .  S
C610        C611   1.400       .  A
C611        C612   1.403       .  A
C611        H624   1.085       .  S
C612        C614   1.442       .  S
C613        N617   1.157       .  T
C614        N618   1.157       .  T
C615        N620   1.157       .  T
C616        N619   1.157       .  T
C625        C626   1.401       .  A
C625        C630   1.401       .  A
C625        C639   1.444       .  S
C626        C631   1.479       .  S
C626        C627   1.396   1_455  A
C627        C628   1.397       .  A
C627        H646   1.085       .  S
C628        C629   1.431   1_655  A
C628        C640   1.446       .  S
C629        C630   1.421       .  A
C630        H645   1.077       .  S
C631        C632   1.406       .  A
C631        C636   1.405       .  A
C632        C633   1.407       .  A
C632        H647   1.084       .  S
C633        C634   1.412       .  A
C633        C637   1.443       .  S
C634        C635   1.407       .  A
C635        C636   1.393       .  A
C635        H648   1.083   1_455  S
C636        C638   1.446   1_455  S
C637        N641   1.157       .  T
C638        N642   1.157       .  T
C639        N644   1.157       .  T
C640        N643   1.157       .  T
C649        C650   1.403       .  A
C649        C654   1.399       .  A
C649        C663   1.445       .  S
C650        C655   1.477       .  S
C650        C651   1.402       .  A
C651        C652   1.398       .  A
C651        H670   1.085       .  S
C652        C653   1.415       .  A
C652        C664   1.443       .  S
C653        C654   1.415       .  A
C654        H669   1.084       .  S
C655        C656   1.387       .  A
C655        C660   1.398       .  A
C656        C657   1.394       .  A
C656        H671   1.087       .  S
C657        C658   1.449       .  A
C657        C661   1.450       .  S
C658        C659   1.422       .  A
C659        C660   1.402       .  A
C659        H672   1.066       .  S
C660        C662   1.444       .  S
C661        N665   1.158       .  T
C662        N666   1.157       .  T
C663        N668   1.157       .  T
C664        N667   1.157       .  T
C673        C674   1.407       .  A
C673        C678   1.403       .  A
C673        C687   1.443       .  S
C674        C679   1.493       .  S
C674        C675   1.403       .  A
C675        C676   1.407       .  A
C675        H694   1.085       .  S
C676        C677   1.422       .  A
C676        C688   1.444       .  S
C677        C678   1.412       .  A
C678        H693   1.084       .  S
C679        C680   1.396       .  A
C679        C684   1.403       .  A
C680        C681   1.407       .  A
C680        H695   1.085       .  S
C681        C682   1.440       .  A
C681        C685   1.444       .  S
C682        C683   1.419       .  A
C683        C684   1.402       .  A
C683        H696   1.078       .  S
C684        C686   1.444       .  S
C685        N689   1.158       .  T
C686        N690   1.157       .  T
C687        N692   1.157       .  T
C688        N691   1.157       .  T
C697        C698   1.405       .  A
C697        C702   1.400       .  A
C697        C711   1.445       .  S
C698        C703   1.490       .  S
C698        C699   1.397       .  A
C699        C700   1.400       .  A
C699        H718   1.085       .  S
C700        C701   1.432       .  A
C700        C712   1.443       .  S
C701        C702   1.423       .  A
C702        H717   1.079       .  S
C703        C704   1.400       .  A
C703        C708   1.412       .  A
C704        C705   1.401       .  A
C704        H719   1.085       .  S
C705        C706   1.422       .  A
C705        C709   1.445       .  S
C706        C707   1.408       .  A
C707        C708   1.403       .  A
C707        H720   1.084       .  S
C708        C710   1.445       .  S
C709        N713   1.157       .  T
C710        N714   1.157       .  T
C711        N716   1.157       .  T
C712        N715   1.157       .  T
C721        C722   1.411       .  A
C721        C726   1.399       .  A
C721        C735   1.444       .  S
C722        C727   1.485       .  S
C722        C723   1.405       .  A
C723        C724   1.403       .  A
C723        H742   1.085       .  S
C724        C725   1.411       .  A
C724        C736   1.445       .  S
C725        C726   1.400       .  A
C726        H741   1.085       .  S
C727        C728   1.402       .  A
C727        C732   1.401       .  A
C728        C729   1.407       .  A
C728        H743   1.085       .  S
C729        C730   1.429       .  A
C729        C733   1.444       .  S
C730        C731   1.421       .  A
C731        C732   1.392       .  A
C731        H744   1.079   1_455  S
C732        C734   1.445       .  S
C733        N737   1.157       .  T
C734        N738   1.157       .  T
C735        N740   1.157       .  T
C736        N739   1.158       .  T
C745        C746   1.413       .  A
C745        C750   1.402       .  A
C745        C759   1.444       .  S
C746        C751   1.488       .  S
C746        C747   1.402       .  A
C747        C748   1.402       .  A
C747        H766   1.085       .  S
C748        C749   1.414       .  A
C748        C760   1.445       .  S
C749        C750   1.402       .  A
C750        H765   1.085       .  S
C751        C752   1.401       .  A
C751        C756   1.400       .  A
C752        C753   1.411       .  A
C752        H767   1.085       .  S
C753        C754   1.430       .  A
C753        C757   1.442       .  S
C754        C755   1.427       .  A
C755        C756   1.392       .  A
C755        H768   1.079       .  S
C756        C758   1.447       .  S
C757        N761   1.157       .  T
C758        N762   1.157       .  T
C759        N764   1.157       .  T
C760        N763   1.157       .  T
C769        C770   1.416       .  A
C769        C774   1.402       .  A
C769        C783   1.444       .  S
C770        C775   1.497       .  S
C770        C771   1.401       .  A
C771        C772   1.399       .  A
C771        H790   1.084       .  S
C772        C773   1.423       .  A
C772        C784   1.445       .  S
C773        C774   1.407       .  A
C774        H789   1.084       .  S
C775        C776   1.396       .  A
C775        C780   1.411       .  A
C776        C777   1.396       .  A
C776        H791   1.085       .  S
C777        C778   1.436       .  A
C777        C781   1.446       .  S
C778        C779   1.417       .  A
C779        C780   1.404       .  A
C779        H792   1.080       .  S
C780        C782   1.444       .  S
C781        N785   1.158       .  T
C782        N786   1.157       .  T
C783        N788   1.157       .  T
C784        N787   1.158       .  T
C793        C794   1.409       .  A
C793        C798   1.407       .  A
C793        C807   1.443       .  S
C794        C799   1.499       .  S
C794        C795   1.405       .  A
C795        C796   1.409       .  A
C795        H814   1.085       .  S
C796        C797   1.419       .  A
C796        C808   1.443       .  S
C797        C798   1.412       .  A
C798        H813   1.084       .  S
C799        C800   1.397       .  A
C799        C804   1.408       .  A
C800        C801   1.404       .  A
C800        H815   1.085       .  S
C801        C802   1.435       .  A
C801        C805   1.444       .  S
C802        C803   1.421       .  A
C803        C804   1.410       .  A
C803        H816   1.079       .  S
C804        C806   1.444       .  S
C805        N809   1.157       .  T
C806        N810   1.157       .  T
C807        N812   1.157       .  T
C808        N811   1.157       .  T
C817        C818   1.403       .  A
C817        C822   1.397       .  A
C817        C831   1.443       .  S
C818        C823   1.476       .  S
C818        C819   1.403       .  A
C819        C820   1.400       .  A
C819        H838   1.085       .  S
C820        C821   1.413       .  A
C820        C832   1.444       .  S
C821        C822   1.411       .  A
C822        H837   1.084       .  S
C823        C824   1.396       .  A
C823        C828   1.401       .  A
C824        C825   1.402       .  A
C824        H839   1.085       .  S
C825        C826   1.431       .  A
C825        C829   1.442       .  S
C826        C827   1.419       .  A
C827        C828   1.396       .  A
C827        H840   1.081       .  S
C828        C830   1.444       .  S
C829        N833   1.157       .  T
C830        N834   1.157       .  T
C831        N836   1.157       .  T
C832        N835   1.157       .  T
C841        C842   1.413       .  A
C841        C846   1.401       .  A
C841        C855   1.444       .  S
C842        C847   1.491       .  S
C842        C843   1.403       .  A
C843        C844   1.397       .  A
C843        H862   1.085       .  S
C844        C845   1.419       .  A
C844        C856   1.446       .  S
C845        C846   1.405       .  A
C846        H861   1.085       .  S
C847        C848   1.399       .  A
C847        C852   1.406       .  A
C848        C849   1.402       .  A
C848        H863   1.085       .  S
C849        C850   1.431       .  A
C849        C853   1.442       .  S
C850        C851   1.421       .  A
C851        C852   1.395       .  A
C851        H864   1.075       .  S
C852        C854   1.446       .  S
C853        N857   1.157       .  T
C854        N858   1.157       .  T
C855        N860   1.157       .  T
C856        N859   1.158       .  T
C865        C866   1.419       .  A
C865        C870   1.406       .  A
C865        C879   1.443       .  S
C866        C871   1.506       .  S
C866        C867   1.411       .  A
C867        C868   1.400       .  A
C867        H886   1.084       .  S
C868        C869   1.406       .  A
C868        C880   1.444       .  S
C869        C870   1.402       .  A
C870        H885   1.085       .  S
C871        C872   1.406       .  A
C871        C876   1.411       .  A
C872        C873   1.408       .  A
C872        H887   1.084       .  S
C873        C874   1.429       .  A
C873        C877   1.444       .  S
C874        C875   1.420       .  A
C875        C876   1.398       .  A
C875        H888   1.076       .  S
C876        C878   1.446       .  S
C877        N881   1.157       .  T
C878        N882   1.157       .  T
C879        N884   1.157       .  T
C880        N883   1.157       .  T
C889        C890   1.399       .  A
C889        C894   1.391       .  A
C889        C903   1.447       .  S
C890        C895   1.468       .  S
C890        C891   1.393       .  A
C891        C892   1.399       .  A
C891        H910   1.085       .  S
C892        C893   1.433       .  A
C892        C904   1.444       .  S
C893        C894   1.422       .  A
C894        H909   1.078       .  S
C895        C896   1.395       .  A
C895        C900   1.406       .  A
C896        C897   1.396       .  A
C896        H911   1.085       .  S
C897        C898   1.421       .  A
C897        C901   1.444       .  S
C898        C899   1.407       .  A
C899        C900   1.394       .  A
C899        H912   1.085       .  S
C900        C902   1.444       .  S
C901        N905   1.157       .  T
C902        N906   1.157       .  T
C903        N908   1.157       .  T
C904        N907   1.157       .  T
C913        C914   1.405       .  A
C913        C918   1.401       .  A
C913        C927   1.444       .  S
C914        C919   1.497       .  S
C914        C915   1.408       .  A
C915        C916   1.410       .  A
C915        H934   1.085       .  S
C916        C917   1.418       .  A
C916        C928   1.443       .  S
C917        C918   1.416       .  A
C918        H933   1.081       .  S
C919        C920   1.395       .  A
C919        C924   1.412       .  A
C920        C921   1.400       .  A
C920        H935   1.086       .  S
C921        C922   1.433       .  A
C921        C925   1.442       .  S
C922        C923   1.418       .  A
C923        C924   1.410       .  A
C923        H936   1.081       .  S
C924        C926   1.443       .  S
C925        N929   1.157       .  T
C926        N930   1.157       .  T
C927        N932   1.157       .  T
C928        N931   1.157       .  T
C937        C938   1.409       .  A
C937        C942   1.408       .  A
C937        C951   1.444       .  S
C938        C943   1.494       .  S
C938        C939   1.404       .  A
C939        C940   1.405       .  A
C939        H958   1.085       .  S
C940        C941   1.418       .  A
C940        C952   1.444       .  S
C941        C942   1.413       .  A
C942        H957   1.084       .  S
C943        C944   1.391       .  A
C943        C948   1.408       .  A
C944        C945   1.398       .  A
C944        H959   1.086       .  S
C945        C946   1.444       .  A
C945        C949   1.446       .  S
C946        C947   1.419       .  A
C947        C948   1.409       .  A
C947        H960   1.082       .  S
C948        C950   1.442       .  S
C949        N953   1.158       .  T
C950        N954   1.157       .  T
C951        N956   1.157       .  T
C952        N955   1.157   1_554  T
C961        C962   1.417       .  A
C961        C966   1.401       .  A
C961        C975   1.445       .  S
C962        C967   1.494       .  S
C962        C963   1.402       .  A
C963        C964   1.403       .  A
C963        H982   1.085       .  S
C964        C965   1.418       .  A
C964        C976   1.444       .  S
C965        C966   1.401       .  A
C966        H981   1.083       .  S
C967        C968   1.387       .  A
C967        C972   1.407       .  A
C968        C969   1.395       .  A
C968        H983   1.088       .  S
C969        C970   1.441       .  A
C969        C973   1.436       .  S
C970        C971   1.427       .  A
C971        C972   1.412       .  A
C971        H984   1.083       .  S
C972        C974   1.443       .  S
C973        N977   1.158   1_655  T
C974        N978   1.157       .  T
C975        N980   1.157       .  T
C976        N979   1.157       .  T
C985        C986   1.408       .  A
C985        C990   1.406       .  A
C985        C999   1.444       .  S
C986        C991   1.492       .  S
C986        C987   1.404       .  A
C987        C988   1.406       .  A
C987       H1006   1.085       .  S
C988        C989   1.414       .  A
C988       C1000   1.441       .  S
C989        C990   1.415       .  A
C990       H1005   1.084       .  S
C991        C992   1.396       .  A
C991        C996   1.407       .  A
C992        C993   1.401       .  A
C992       H1007   1.085       .  S
C993        C994   1.435       .  A
C993        C997   1.445       .  S
C994        C995   1.418       .  A
C995        C996   1.407       .  A
C995       H1008   1.079       .  S
C996        C998   1.443       .  S
C997       N1001   1.158   1_655  T
C998       N1002   1.157       .  T
C999       N1004   1.157       .  T
C1000      N1003   1.157       .  T
C1009      C1010   1.406       .  A
C1009      C1014   1.395       .  A
C1009      C1023   1.445       .  S
C1010      C1015   1.474       .  S
C1010      C1011   1.398       .  A
C1011      C1012   1.397       .  A
C1011      H1030   1.085       .  S
C1012      C1013   1.421       .  A
C1012      C1024   1.445       .  S
C1013      C1014   1.408       .  A
C1014      H1029   1.084       .  S
C1015      C1016   1.397       .  A
C1015      C1020   1.398       .  A
C1016      C1017   1.402       .  A
C1016      H1031   1.086       .  S
C1017      C1018   1.432       .  A
C1017      C1021   1.441       .  S
C1018      C1019   1.424       .  A
C1019      C1020   1.390       .  A
C1019      H1032   1.083       .  S
C1020      C1022   1.446       .  S
C1021      N1025   1.158       .  T
C1022      N1026   1.157       .  T
C1023      N1028   1.157       .  T
C1024      N1027   1.158       .  T
C1033      C1034   1.403       .  A
C1033      C1038   1.395       .  A
C1033      C1047   1.445       .  S
C1034      C1039   1.480       .  S
C1034      C1035   1.396   1_545  A
C1035      C1036   1.398       .  A
C1035      H1054   1.086       .  S
C1036      C1037   1.434   1_565  A
C1036      C1048   1.443       .  S
C1037      C1038   1.422       .  A
C1038      H1053   1.084       .  S
C1039      C1040   1.405       .  A
C1039      C1044   1.409       .  A
C1040      C1041   1.399       .  A
C1040      H1055   1.085       .  S
C1041      C1042   1.409       .  A
C1041      C1045   1.444       .  S
C1042      C1043   1.407       .  A
C1043      C1044   1.394       .  A
C1043      H1056   1.085       .  S
C1044      C1046   1.445       .  S
C1045      N1049   1.157   1_455  T
C1046      N1050   1.157       .  T
C1047      N1052   1.157       .  T
C1048      N1051   1.158       .  T
C1057      C1058   1.407       .  A
C1057      C1062   1.405       .  A
C1057      C1071   1.443   1_545  S
C1058      C1063   1.485       .  S
C1058      C1059   1.392       .  A
C1059      C1060   1.396       .  A
C1059      H1078   1.086       .  S
C1060      C1061   1.434       .  A
C1060      C1072   1.443       .  S
C1061      C1062   1.418       .  A
C1062      H1077   1.079   1_545  S
C1063      C1064   1.402       .  A
C1063      C1068   1.412       .  A
C1064      C1065   1.403       .  A
C1064      H1079   1.085       .  S
C1065      C1066   1.415       .  A
C1065      C1069   1.445       .  S
C1066      C1067   1.399       .  A
C1067      C1068   1.399       .  A
C1067      H1080   1.083       .  S
C1068      C1070   1.444       .  S
C1069      N1073   1.157   1_455  T
C1070      N1074   1.157       .  T
C1071      N1076   1.157       .  T
C1072      N1075   1.157       .  T
C1081      C1082   1.411       .  A
C1081      C1086   1.403       .  A
C1081      C1095   1.444       .  S
C1082      C1087   1.484       .  S
C1082      C1083   1.398       .  A
C1083      C1084   1.394       .  A
C1083      H1102   1.086       .  S
C1084      C1085   1.419       .  A
C1084      C1096   1.444       .  S
C1085      C1086   1.409       .  A
C1086      H1101   1.084       .  S
C1087      C1088   1.397       .  A
C1087      C1092   1.404       .  A
C1088      C1089   1.399       .  A
C1088      H1103   1.085       .  S
C1089      C1090   1.431       .  A
C1089      C1093   1.444       .  S
C1090      C1091   1.421       .  A
C1091      C1092   1.400       .  A
C1091      H1104   1.077       .  S
C1092      C1094   1.446       .  S
C1093      N1097   1.157       .  T
C1094      N1098   1.157       .  T
C1095      N1100   1.157       .  T
C1096      N1099   1.157       .  T
C1105      C1106   1.407       .  A
C1105      C1110   1.390       .  A
C1105      C1119   1.445       .  S
C1106      C1111   1.481       .  S
C1106      C1107   1.407       .  A
C1107      C1108   1.405       .  A
C1107      H1126   1.085       .  S
C1108      C1109   1.413       .  A
C1108      C1120   1.444       .  S
C1109      C1110   1.404       .  A
C1110      H1125   1.085       .  S
C1111      C1112   1.397       .  A
C1111      C1116   1.403       .  A
C1112      C1113   1.396       .  A
C1112      H1127   1.085       .  S
C1113      C1114   1.431       .  A
C1113      C1117   1.445       .  S
C1114      C1115   1.421       .  A
C1115      C1116   1.398       .  A
C1115      H1128   1.080       .  S
C1116      C1118   1.445       .  S
C1117      N1121   1.157       .  T
C1118      N1122   1.157       .  T
C1119      N1124   1.157       .  T
C1120      N1123   1.157       .  T
C1129      C1130   1.399       .  A
C1129      C1134   1.399       .  A
C1129      C1143   1.446       .  S
C1130      C1135   1.491       .  S
C1130      C1131   1.399       .  A
C1131      C1132   1.411       .  A
C1131      H1150   1.085       .  S
C1132      C1133   1.434       .  A
C1132      C1144   1.441       .  S
C1133      C1134   1.426       .  A
C1134      H1149   1.077       .  S
C1135      C1136   1.403       .  A
C1135      C1140   1.408       .  A
C1136      C1137   1.405       .  A
C1136      H1151   1.085       .  S
C1137      C1138   1.418       .  A
C1137      C1141   1.444       .  S
C1138      C1139   1.411       .  A
C1139      C1140   1.404       .  A
C1139      H1152   1.084       .  S
C1140      C1142   1.443       .  S
C1141      N1145   1.157       .  T
C1142      N1146   1.157       .  T
C1143      N1148   1.157       .  T
C1144      N1147   1.157       .  T
C1153      C1154   1.418       .  A
C1153      C1158   1.405       .  A
C1153      C1167   1.444       .  S
C1154      C1159   1.497       .  S
C1154      C1155   1.405       .  A
C1155      C1156   1.401       .  A
C1155      H1174   1.084       .  S
C1156      C1157   1.410       .  A
C1156      C1168   1.444       .  S
C1157      C1158   1.400       .  A
C1158      H1173   1.085       .  S
C1159      C1160   1.399       .  A
C1159      C1164   1.408       .  A
C1160      C1161   1.400       .  A
C1160      H1175   1.085       .  S
C1161      C1162   1.432       .  A
C1161      C1165   1.443       .  S
C1162      C1163   1.422       .  A
C1163      C1164   1.405       .  A
C1163      H1176   1.077       .  S
C1164      C1166   1.444       .  S
C1165      N1169   1.157       .  T
C1166      N1170   1.157       .  T
C1167      N1172   1.157       .  T
C1168      N1171   1.157       .  T
C1177      C1178   1.402   1_545  A
C1177      C1182   1.401       .  A
C1177      C1191   1.445       .  S
C1178      C1183   1.494       .  S
C1178      C1179   1.398       .  A
C1179      C1180   1.409   1_565  A
C1179      H1198   1.085       .  S
C1180      C1181   1.432       .  A
C1180      C1192   1.439       .  S
C1181      C1182   1.427       .  A
C1182      H1197   1.078       .  S
C1183      C1184   1.408       .  A
C1183      C1188   1.407   1_565  A
C1184      C1185   1.412       .  A
C1184      H1199   1.084       .  S
C1185      C1186   1.414       .  A
C1185      C1189   1.442       .  S
C1186      C1187   1.412   1_565  A
C1187      C1188   1.398       .  A
C1187      H1200   1.085       .  S
C1188      C1190   1.445       .  S
C1189      N1193   1.157       .  T
C1190      N1194   1.157       .  T
C1191      N1196   1.157       .  T
C1192      N1195   1.157       .  T
C1201      C1202   1.401       .  A
C1201      C1206   1.392       .  A
C1201      C1215   1.446       .  S
C1202      C1207   1.478       .  S
C1202      C1203   1.404   1_545  A
C1203      C1204   1.407       .  A
C1203      H1222   1.085       .  S
C1204      C1205   1.417       .  A
C1204      C1216   1.443       .  S
C1205      C1206   1.413   1_565  A
C1206      H1221   1.083       .  S
C1207      C1208   1.394   1_545  A
C1207      C1212   1.402       .  A
C1208      C1209   1.399       .  A
C1208      H1223   1.085       .  S
C1209      C1210   1.434   1_565  A
C1209      C1213   1.444       .  S
C1210      C1211   1.419       .  A
C1211      C1212   1.399       .  A
C1211      H1224   1.079       .  S
C1212      C1214   1.444       .  S
C1213      N1217   1.157       .  T
C1214      N1218   1.157       .  T
C1215      N1220   1.157       .  T
C1216      N1219   1.157   1_655  T
C1225      C1226   1.406       .  A
C1225      C1230   1.401       .  A
C1225      C1239   1.444       .  S
C1226      C1231   1.487       .  S
C1226      C1227   1.399       .  A
C1227      C1228   1.406       .  A
C1227      H1246   1.085       .  S
C1228      C1229   1.430       .  A
C1228      C1240   1.443       .  S
C1229      C1230   1.419       .  A
C1230      H1245   1.084       .  S
C1231      C1232   1.403       .  A
C1231      C1236   1.407       .  A
C1232      C1233   1.404       .  A
C1232      H1247   1.085       .  S
C1233      C1234   1.414       .  A
C1233      C1237   1.440       .  S
C1234      C1235   1.410       .  A
C1235      C1236   1.400       .  A
C1235      H1248   1.084       .  S
C1236      C1238   1.443       .  S
C1237      N1241   1.156       .  T
C1238      N1242   1.157       .  T
C1239      N1244   1.157       .  T
C1240      N1243   1.158       .  T
C1249      C1250   1.405       .  A
C1249      C1254   1.405       .  A
C1249      C1263   1.443       .  S
C1250      C1255   1.490       .  S
C1250      C1251   1.392       .  A
C1251      C1252   1.401       .  A
C1251      H1270   1.086       .  S
C1252      C1253   1.443       .  A
C1252      C1264   1.442       .  S
C1253      C1254   1.421       .  A
C1254      H1269   1.083       .  S
C1255      C1256   1.408       .  A
C1255      C1260   1.409       .  A
C1256      C1257   1.410       .  A
C1256      H1271   1.084       .  S
C1257      C1258   1.412       .  A
C1257      C1261   1.442       .  S
C1258      C1259   1.407       .  A
C1259      C1260   1.395       .  A
C1259      H1272   1.086       .  S
C1260      C1262   1.445       .  S
C1261      N1265   1.157       .  T
C1262      N1266   1.157       .  T
C1263      N1268   1.157       .  T
C1264      N1267   1.158       .  T
C1273      C1274   1.408       .  A
C1273      C1278   1.398       .  A
C1273      C1287   1.444       .  S
C1274      C1279   1.478       .  S
C1274      C1275   1.399       .  A
C1275      C1276   1.400       .  A
C1275      H1294   1.085       .  S
C1276      C1277   1.417       .  A
C1276      C1288   1.443       .  S
C1277      C1278   1.409       .  A
C1278      H1293   1.085       .  S
C1279      C1280   1.396       .  A
C1279      C1284   1.400       .  A
C1280      C1281   1.403       .  A
C1280      H1295   1.086       .  S
C1281      C1282   1.435       .  A
C1281      C1285   1.444       .  S
C1282      C1283   1.419       .  A
C1283      C1284   1.394       .  A
C1283      H1296   1.079       .  S
C1284      C1286   1.445       .  S
C1285      N1289   1.158       .  T
C1286      N1290   1.157       .  T
C1287      N1292   1.157       .  T
C1288      N1291   1.157       .  T
C1297      C1298   1.409       .  A
C1297      C1302   1.400       .  A
C1297      C1311   1.444       .  S
C1298      C1303   1.494       .  S
C1298      C1299   1.397       .  A
C1299      C1300   1.401       .  A
C1299      H1318   1.085       .  S
C1300      C1301   1.432       .  A
C1300      C1312   1.440       .  S
C1301      C1302   1.417       .  A
C1302      H1317   1.082       .  S
C1303      C1304   1.403       .  A
C1303      C1308   1.415       .  A
C1304      C1305   1.398       .  A
C1304      H1319   1.085       .  S
C1305      C1306   1.413       .  A
C1305      C1309   1.442       .  S
C1306      C1307   1.401       .  A
C1307      C1308   1.404       .  A
C1307      H1320   1.082       .  S
C1308      C1310   1.443       .  S
C1309      N1313   1.156       .  T
C1310      N1314   1.157       .  T
C1311      N1316   1.157       .  T
C1312      N1315   1.157       .  T
C1321      C1322   1.411   1_455  A
C1321      C1326   1.403       .  A
C1321      C1335   1.443       .  S
C1322      C1327   1.498       .  S
C1322      C1323   1.407       .  A
C1323      C1324   1.409       .  A
C1323      H1342   1.084       .  S
C1324      C1325   1.416       .  A
C1324      C1336   1.443       .  S
C1325      C1326   1.407   1_655  A
C1326      H1341   1.085       .  S
C1327      C1328   1.396   1_655  A
C1327      C1332   1.409       .  A
C1328      C1329   1.403       .  A
C1328      H1343   1.085       .  S
C1329      C1330   1.435   1_455  A
C1329      C1333   1.444       .  S
C1330      C1331   1.419       .  A
C1331      C1332   1.411       .  A
C1331      H1344   1.079       .  S
C1332      C1334   1.443       .  S
C1333      N1337   1.158       .  T
C1334      N1338   1.157       .  T
C1335      N1340   1.157       .  T
C1336      N1339   1.157       .  T
C1345      C1346   1.401       .  A
C1345      C1350   1.397       .  A
C1345      C1359   1.447       .  S
C1346      C1351   1.492       .  S
C1346      C1347   1.400       .  A
C1347      C1348   1.410       .  A
C1347      H1366   1.085       .  S
C1348      C1349   1.438       .  A
C1348      C1360   1.447       .  S
C1349      C1350   1.427       .  A
C1350      H1365   1.077       .  S
C1351      C1352   1.401       .  A
C1351      C1356   1.412   1_655  A
C1352      C1353   1.399       .  A
C1352      H1367   1.085       .  S
C1353      C1354   1.417       .  A
C1353      C1357   1.445       .  S
C1354      C1355   1.409   1_655  A
C1355      C1356   1.407       .  A
C1355      H1368   1.085       .  S
C1356      C1358   1.444       .  S
C1357      N1361   1.157       .  T
C1358      N1362   1.157       .  T
C1359      N1364   1.157       .  T
C1360      N1363   1.158       .  T
C1369      C1370   1.418       .  A
C1369      C1374   1.404       .  A
C1369      C1383   1.445       .  S
C1370      C1375   1.496       .  S
C1370      C1371   1.400       .  A
C1371      C1372   1.402       .  A
C1371      H1390   1.085       .  S
C1372      C1373   1.419       .  A
C1372      C1384   1.440       .  S
C1373      C1374   1.402       .  A
C1374      H1389   1.085       .  S
C1375      C1376   1.393       .  A
C1375      C1380   1.412       .  A
C1376      C1377   1.395       .  A
C1376      H1391   1.086       .  S
C1377      C1378   1.438       .  A
C1377      C1381   1.444       .  S
C1378      C1379   1.419       .  A
C1379      C1380   1.410       .  A
C1379      H1392   1.084       .  S
C1380      C1382   1.443       .  S
C1381      N1385   1.158       .  T
C1382      N1386   1.157       .  T
C1383      N1388   1.157       .  T
C1384      N1387   1.155       .  T
C1393      C1394   1.413       .  A
C1393      C1398   1.399       .  A
C1393      C1407   1.445       .  S
C1394      C1399   1.481       .  S
C1394      C1395   1.402       .  A
C1395      C1396   1.400       .  A
C1395      H1414   1.085       .  S
C1396      C1397   1.410       .  A
C1396      C1408   1.445       .  S
C1397      C1398   1.399       .  A
C1398      H1413   1.085       .  S
C1399      C1400   1.388       .  A
C1399      C1404   1.403       .  A
C1400      C1401   1.393       .  A
C1400      H1415   1.087       .  S
C1401      C1402   1.436       .  A
C1401      C1405   1.436       .  S
C1402      C1403   1.423       .  A
C1403      C1404   1.405       .  A
C1403      H1416   1.083       .  S
C1404      C1406   1.443       .  S
C1405      N1409   1.156       .  T
C1406      N1410   1.157       .  T
C1407      N1412   1.157       .  T
C1408      N1411   1.157       .  T
C1417      C1418   1.404       .  A
C1417      C1422   1.401       .  A
C1417      C1431   1.443       .  S
C1418      C1423   1.500       .  S
C1418      C1419   1.404       .  A
C1419      C1420   1.415       .  A
C1419      H1438   1.085       .  S
C1420      C1421   1.431       .  A
C1420      C1432   1.442       .  S
C1421      C1422   1.420       .  A
C1422      H1437   1.082       .  S
C1423      C1424   1.405       .  A
C1423      C1428   1.409       .  A
C1424      C1425   1.411       .  A
C1424      H1439   1.085       .  S
C1425      C1426   1.418       .  A
C1425      C1429   1.442       .  S
C1426      C1427   1.415       .  A
C1427      C1428   1.408       .  A
C1427      H1440   1.084       .  S
C1428      C1430   1.444       .  S
C1429      N1433   1.157       .  T
C1430      N1434   1.157       .  T
C1431      N1436   1.157       .  T
C1432      N1435   1.158       .  T
C1441      C1442   1.405       .  A
C1441      C1446   1.394       .  A
C1441      C1455   1.444       .  S
C1442      C1447   1.474       .  S
C1442      C1443   1.398       .  A
C1443      C1444   1.398       .  A
C1443      H1462   1.085       .  S
C1444      C1445   1.422       .  A
C1444      C1456   1.445       .  S
C1445      C1446   1.409       .  A
C1446      H1461   1.084       .  S
C1447      C1448   1.394       .  A
C1447      C1452   1.401       .  A
C1448      C1449   1.401       .  A
C1448      H1463   1.085       .  S
C1449      C1450   1.433       .  A
C1449      C1453   1.443       .  S
C1450      C1451   1.421       .  A
C1451      C1452   1.390       .  A
C1451      H1464   1.078       .  S
C1452      C1454   1.447       .  S
C1453      N1457   1.157       .  T
C1454      N1458   1.157       .  T
C1455      N1460   1.157       .  T
C1456      N1459   1.158   1_455  T
C1465      C1466   1.399       .  A
C1465      C1470   1.392       .  A
C1465      C1479   1.447       .  S
C1466      C1471   1.469       .  S
C1466      C1467   1.393       .  A
C1467      C1468   1.398       .  A
C1467      H1486   1.085       .  S
C1468      C1469   1.432       .  A
C1468      C1480   1.445       .  S
C1469      C1470   1.421       .  A
C1470      H1485   1.078       .  S
C1471      C1472   1.396       .  A
C1471      C1476   1.404       .  A
C1472      C1473   1.397       .  A
C1472      H1487   1.085       .  S
C1473      C1474   1.422       .  A
C1473      C1477   1.444       .  S
C1474      C1475   1.410       .  A
C1475      C1476   1.395       .  A
C1475      H1488   1.083       .  S
C1476      C1478   1.446       .  S
C1477      N1481   1.157       .  T
C1478      N1482   1.157       .  T
C1479      N1484   1.157       .  T
C1480      N1483   1.157       .  T
C1489      C1490   1.413       .  A
C1489      C1494   1.404       .  A
C1489      C1503   1.443       .  S
C1490      C1495   1.492       .  S
C1490      C1491   1.405       .  A
C1491      C1492   1.405       .  A
C1491      H1510   1.085       .  S
C1492      C1493   1.411       .  A
C1492      C1504   1.444       .  S
C1493      C1494   1.402       .  A
C1494      H1509   1.085       .  S
C1495      C1496   1.389       .  A
C1495      C1500   1.407       .  A
C1496      C1497   1.398       .  A
C1496      H1511   1.087       .  S
C1497      C1498   1.442       .  A
C1497      C1501   1.442       .  S
C1498      C1499   1.420       .  A
C1499      C1500   1.412       .  A
C1499      H1512   1.084       .  S
C1500      C1502   1.442       .  S
C1501      N1505   1.157   1_545  T
C1502      N1506   1.157       .  T
C1503      N1508   1.157       .  T
C1504      N1507   1.157       .  T
C1513      C1514   1.405       .  A
C1513      C1518   1.402       .  A
C1513      C1527   1.444       .  S
C1514      C1519   1.487       .  S
C1514      C1515   1.395       .  A
C1515      C1516   1.398       .  A
C1515      H1534   1.086       .  S
C1516      C1517   1.433       .  A
C1516      C1528   1.444       .  S
C1517      C1518   1.423       .  A
C1518      H1533   1.080       .  S
C1519      C1520   1.402       .  A
C1519      C1524   1.408       .  A
C1520      C1521   1.402       .  A
C1520      H1535   1.085       .  S
C1521      C1522   1.421       .  A
C1521      C1525   1.445       .  S
C1522      C1523   1.411       .  A
C1523      C1524   1.401       .  A
C1523      H1536   1.084       .  S
C1524      C1526   1.444       .  S
C1525      N1529   1.158       .  T
C1526      N1530   1.157       .  T
C1527      N1532   1.157       .  T
C1528      N1531   1.157       .  T
C1537      C1538   1.405       .  A
C1537      C1542   1.397       .  A
C1537      C1551   1.444       .  S
C1538      C1543   1.478       .  S
C1538      C1539   1.401       .  A
C1539      C1540   1.402       .  A
C1539      H1558   1.085       .  S
C1540      C1541   1.416       .  A
C1540      C1552   1.442       .  S
C1541      C1542   1.408       .  A
C1542      H1557   1.085       .  S
C1543      C1544   1.401       .  A
C1543      C1548   1.397       .  A
C1544      C1545   1.410       .  A
C1544      H1559   1.085       .  S
C1545      C1546   1.431       .  A
C1545      C1549   1.440       .  S
C1546      C1547   1.424       .  A
C1547      C1548   1.387       .  A
C1547      H1560   1.084       .  S
C1548      C1550   1.446       .  S
C1549      N1553   1.158       .  T
C1550      N1554   1.157       .  T
C1551      N1556   1.157       .  T
C1552      N1555   1.156       .  T
C1561      C1562   1.413       .  A
C1561      C1566   1.403       .  A
C1561      C1575   1.444       .  S
C1562      C1567   1.496       .  S
C1562      C1563   1.406   1_655  A
C1563      C1564   1.405       .  A
C1563      H1582   1.085       .  S
C1564      C1565   1.414   1_455  A
C1564      C1576   1.444       .  S
C1565      C1566   1.406       .  A
C1566      H1581   1.085       .  S
C1567      C1568   1.400       .  A
C1567      C1572   1.408   1_655  A
C1568      C1569   1.406       .  A
C1568      H1583   1.085       .  S
C1569      C1570   1.432       .  A
C1569      C1573   1.445       .  S
C1570      C1571   1.417   1_655  A
C1571      C1572   1.401       .  A
C1571      H1584   1.079       .  S
C1572      C1574   1.444       .  S
C1573      N1577   1.158       .  T
C1574      N1578   1.157       .  T
C1575      N1580   1.157       .  T
C1576      N1579   1.157       .  T
C1585      C1586   1.408       .  A
C1585      C1590   1.399       .  A
C1585      C1599   1.444       .  S
C1586      C1591   1.480       .  S
C1586      C1587   1.399   1_655  A
C1587      C1588   1.400       .  A
C1587      H1606   1.085       .  S
C1588      C1589   1.420   1_455  A
C1588      C1600   1.444       .  S
C1589      C1590   1.408       .  A
C1590      H1605   1.084       .  S
C1591      C1592   1.398       .  A
C1591      C1596   1.399   1_655  A
C1592      C1593   1.405       .  A
C1592      H1607   1.085       .  S
C1593      C1594   1.430   1_655  A
C1593      C1597   1.443       .  S
C1594      C1595   1.425       .  A
C1595      C1596   1.395       .  A
C1595      H1608   1.078       .  S
C1596      C1598   1.446       .  S
C1597      N1601   1.157       .  T
C1598      N1602   1.157       .  T
C1599      N1604   1.157       .  T
C1600      N1603   1.157       .  T
C1609      C1610   1.408       .  A
C1609      C1614   1.397       .  A
C1609      C1623   1.444       .  S
C1610      C1615   1.481       .  S
C1610      C1611   1.400       .  A
C1611      C1612   1.402       .  A
C1611      H1630   1.085       .  S
C1612      C1613   1.420       .  A
C1612      C1624   1.445       .  S
C1613      C1614   1.405       .  A
C1614      H1629   1.085       .  S
C1615      C1616   1.398       .  A
C1615      C1620   1.401       .  A
C1616      C1617   1.406       .  A
C1616      H1631   1.085       .  S
C1617      C1618   1.435       .  A
C1617      C1621   1.443       .  S
C1618      C1619   1.420       .  A
C1619      C1620   1.391       .  A
C1619      H1632   1.084       .  S
C1620      C1622   1.445       .  S
C1621      N1625   1.158       .  T
C1622      N1626   1.157       .  T
C1623      N1628   1.157       .  T
C1624      N1627   1.158       .  T
C1633      C1634   1.411       .  A
C1633      C1638   1.401       .  A
C1633      C1647   1.444       .  S
C1634      C1639   1.489       .  S
C1634      C1635   1.407       .  A
C1635      C1636   1.400       .  A
C1635      H1654   1.085       .  S
C1636      C1637   1.408       .  A
C1636      C1648   1.444       .  S
C1637      C1638   1.405       .  A
C1638      H1653   1.085       .  S
C1639      C1640   1.400       .  A
C1639      C1644   1.402       .  A
C1640      C1641   1.408       .  A
C1640      H1655   1.085       .  S
C1641      C1642   1.432       .  A
C1641      C1645   1.441       .  S
C1642      C1643   1.424       .  A
C1643      C1644   1.395       .  A
C1643      H1656   1.080       .  S
C1644      C1646   1.446       .  S
C1645      N1649   1.157       .  T
C1646      N1650   1.157       .  T
C1647      N1652   1.157       .  T
C1648      N1651   1.157       .  T
C1657      C1658   1.403       .  A
C1657      C1662   1.397       .  A
C1657      C1671   1.444       .  S
C1658      C1663   1.470       .  S
C1658      C1659   1.395       .  A
C1659      C1660   1.393       .  A
C1659      H1678   1.085       .  S
C1660      C1661   1.428       .  A
C1660      C1672   1.443       .  S
C1661      C1662   1.418       .  A
C1662      H1677   1.078       .  S
C1663      C1664   1.405       .  A
C1663      C1668   1.404       .  A
C1664      C1665   1.390       .  A
C1664      H1679   1.083       .  S
C1665      C1666   1.402       .  A
C1665      C1669   1.443       .  S
C1666      C1667   1.408       .  A
C1667      C1668   1.396       .  A
C1667      H1680   1.086       .  S
C1668      C1670   1.443       .  S
C1669      N1673   1.156       .  T
C1670      N1674   1.157       .  T
C1671      N1676   1.157       .  T
C1672      N1675   1.158       .  T
C1681      C1682   1.409       .  A
C1681      C1686   1.403       .  A
C1681      C1695   1.444       .  S
C1682      C1687   1.497       .  S
C1682      C1683   1.406       .  A
C1683      C1684   1.406       .  A
C1683      H1702   1.085       .  S
C1684      C1685   1.420       .  A
C1684      C1696   1.444       .  S
C1685      C1686   1.413       .  A
C1686      H1701   1.082       .  S
C1687      C1688   1.404       .  A
C1687      C1692   1.406       .  A
C1688      C1689   1.408       .  A
C1688      H1703   1.085       .  S
C1689      C1690   1.430       .  A
C1689      C1693   1.441       .  S
C1690      C1691   1.423       .  A
C1691      C1692   1.398       .  A
C1691      H1704   1.084       .  S
C1692      C1694   1.444       .  S
C1693      N1697   1.158       .  T
C1694      N1698   1.157       .  T
C1695      N1700   1.157       .  T
C1696      N1699   1.158       .  T
C1705      C1706   1.408       .  A
C1705      C1710   1.400       .  A
C1705      C1719   1.444       .  S
C1706      C1711   1.481       .  S
C1706      C1707   1.404       .  A
C1707      C1708   1.398       .  A
C1707      H1726   1.085       .  S
C1708      C1709   1.409       .  A
C1708      C1720   1.443       .  S
C1709      C1710   1.407       .  A
C1710      H1725   1.085       .  S
C1711      C1712   1.402       .  A
C1711      C1716   1.398       .  A
C1712      C1713   1.409       .  A
C1712      H1727   1.085       .  S
C1713      C1714   1.428       .  A
C1713      C1717   1.443       .  S
C1714      C1715   1.425       .  A
C1715      C1716   1.390       .  A
C1715      H1728   1.081   1_565  S
C1716      C1718   1.447       .  S
C1717      N1721   1.157       .  T
C1718      N1722   1.157       .  T
C1719      N1724   1.157       .  T
C1720      N1723   1.157   1_455  T
C1729      C1730   1.406       .  A
C1729      C1734   1.396       .  A
C1729      C1743   1.445       .  S
C1730      C1735   1.475       .  S
C1730      C1731   1.400       .  A
C1731      C1732   1.397       .  A
C1731      H1750   1.085       .  S
C1732      C1733   1.420       .  A
C1732      C1744   1.445       .  S
C1733      C1734   1.411       .  A
C1734      H1749   1.084       .  S
C1735      C1736   1.392       .  A
C1735      C1740   1.400       .  A
C1736      C1737   1.394       .  A
C1736      H1751   1.087       .  S
C1737      C1738   1.437       .  A
C1737      C1741   1.442       .  S
C1738      C1739   1.425       .  A
C1739      C1740   1.398       .  A
C1739      H1752   1.084       .  S
C1740      C1742   1.443       .  S
C1741      N1745   1.158       .  T
C1742      N1746   1.157       .  T
C1743      N1748   1.157       .  T
C1744      N1747   1.158       .  T
C1753      C1754   1.409       .  A
C1753      C1758   1.402       .  A
C1753      C1767   1.445       .  S
C1754      C1759   1.489       .  S
C1754      C1755   1.396       .  A
C1755      C1756   1.400       .  A
C1755      H1774   1.085       .  S
C1756      C1757   1.436       .  A
C1756      C1768   1.444       .  S
C1757      C1758   1.417       .  A
C1758      H1773   1.076       .  S
C1759      C1760   1.400       .  A
C1759      C1764   1.413       .  A
C1760      C1761   1.400       .  A
C1760      H1775   1.085       .  S
C1761      C1762   1.425       .  A
C1761      C1765   1.446       .  S
C1762      C1763   1.404       .  A
C1763      C1764   1.397       .  A
C1763      H1776   1.085       .  S
C1764      C1766   1.443       .  S
C1765      N1769   1.158       .  T
C1766      N1770   1.157       .  T
C1767      N1772   1.157       .  T
C1768      N1771   1.157   1_565  T
C1777      C1778   1.409       .  A
C1777      C1782   1.401       .  A
C1777      C1791   1.444       .  S
C1778      C1783   1.486       .  S
C1778      C1779   1.401       .  A
C1779      C1780   1.402       .  A
C1779      H1798   1.085       .  S
C1780      C1781   1.420       .  A
C1780      C1792   1.445       .  S
C1781      C1782   1.409       .  A
C1782      H1797   1.084       .  S
C1783      C1784   1.396       .  A
C1783      C1788   1.405       .  A
C1784      C1785   1.399       .  A
C1784      H1799   1.086       .  S
C1785      C1786   1.435       .  A
C1785      C1789   1.446   1_565  S
C1786      C1787   1.418       .  A
C1787      C1788   1.401       .  A
C1787      H1800   1.079       .  S
C1788      C1790   1.443       .  S
C1789      N1793   1.158       .  T
C1790      N1794   1.157       .  T
C1791      N1796   1.157       .  T
C1792      N1795   1.158       .  T
C1801      C1802   1.412       .  A
C1801      C1806   1.404       .  A
C1801      C1815   1.444       .  S
C1802      C1807   1.479       .  S
C1802      C1803   1.400       .  A
C1803      C1804   1.394       .  A
C1803      H1822   1.085       .  S
C1804      C1805   1.408       .  A
C1804      C1816   1.445       .  S
C1805      C1806   1.403       .  A
C1806      H1821   1.085       .  S
C1807      C1808   1.394       .  A
C1807      C1812   1.400       .  A
C1808      C1809   1.402       .  A
C1808      H1823   1.085       .  S
C1809      C1810   1.433       .  A
C1809      C1813   1.441       .  S
C1810      C1811   1.424       .  A
C1811      C1812   1.398       .  A
C1811      H1824   1.080       .  S
C1812      C1814   1.446       .  S
C1813      N1817   1.157       .  T
C1814      N1818   1.157       .  T
C1815      N1820   1.157       .  T
C1816      N1819   1.157       .  T
C1825      C1826   1.411       .  A
C1825      C1830   1.396       .  A
C1825      C1839   1.446       .  S
C1826      C1831   1.482       .  S
C1826      C1827   1.405       .  A
C1827      C1828   1.403       .  A
C1827      H1846   1.084       .  S
C1828      C1829   1.407       .  A
C1828      C1840   1.443       .  S
C1829      C1830   1.402       .  A
C1830      H1845   1.085       .  S
C1831      C1832   1.391       .  A
C1831      C1836   1.403       .  A
C1832      C1833   1.396       .  A
C1832      H1847   1.087       .  S
C1833      C1834   1.441       .  A
C1833      C1837   1.443       .  S
C1834      C1835   1.421       .  A
C1835      C1836   1.400       .  A
C1835      H1848   1.084       .  S
C1836      C1838   1.444       .  S
C1837      N1841   1.158       .  T
C1838      N1842   1.157       .  T
C1839      N1844   1.158       .  T
C1840      N1843   1.157       .  T
C1849      C1850   1.402       .  A
C1849      C1854   1.399       .  A
C1849      C1863   1.445       .  S
C1850      C1855   1.498       .  S
C1850      C1851   1.403       .  A
C1851      C1852   1.412       .  A
C1851      H1870   1.085       .  S
C1852      C1853   1.431       .  A
C1852      C1864   1.442       .  S
C1853      C1854   1.426       .  A
C1854      H1869   1.080       .  S
C1855      C1856   1.408       .  A
C1855      C1860   1.411       .  A
C1856      C1857   1.407       .  A
C1856      H1871   1.085       .  S
C1857      C1858   1.414       .  A
C1857      C1861   1.444       .  S
C1858      C1859   1.408       .  A
C1859      C1860   1.403       .  A
C1859      H1872   1.084       .  S
C1860      C1862   1.444       .  S
C1861      N1865   1.157       .  T
C1862      N1866   1.157       .  T
C1863      N1868   1.157       .  T
C1864      N1867   1.157       .  T
C1873      C1874   1.413       .  A
C1873      C1878   1.408       .  A
C1873      C1887   1.442       .  S
C1874      C1879   1.495       .  S
C1874      C1875   1.402       .  A
C1875      C1876   1.400       .  A
C1875      H1894   1.085       .  S
C1876      C1877   1.419       .  A
C1876      C1888   1.446       .  S
C1877      C1878   1.406       .  A
C1878      H1893   1.083       .  S
C1879      C1880   1.400       .  A
C1879      C1884   1.402       .  A
C1880      C1881   1.410       .  A
C1880      H1895   1.085       .  S
C1881      C1882   1.435       .  A
C1881      C1885   1.438       .  S
C1882      C1883   1.425       .  A
C1883      C1884   1.396       .  A
C1883      H1896   1.085       .  S
C1884      C1886   1.444       .  S
C1885      N1889   1.157       .  T
C1886      N1890   1.157       .  T
C1887      N1892   1.157       .  T
C1888      N1891   1.157       .  T
C1897      C1898   1.410   1_554  A
C1897      C1902   1.403       .  A
C1897      C1911   1.445       .  S
C1898      C1903   1.490       .  S
C1898      C1899   1.399       .  A
C1899      C1900   1.404       .  A
C1899      H1918   1.085       .  S
C1900      C1901   1.422       .  A
C1900      C1912   1.442       .  S
C1901      C1902   1.413   1_556  A
C1902      H1917   1.084       .  S
C1903      C1904   1.401       .  A
C1903      C1908   1.400       .  A
C1904      C1905   1.412       .  A
C1904      H1919   1.085       .  S
C1905      C1906   1.432       .  A
C1905      C1909   1.443       .  S
C1906      C1907   1.425       .  A
C1907      C1908   1.394       .  A
C1907      H1920   1.079       .  S
C1908      C1910   1.446       .  S
C1909      N1913   1.158       .  T
C1910      N1914   1.157   1_556  T
C1911      N1916   1.157       .  T
C1912      N1915   1.157       .  T
C1921      C1922   1.407   1_554  A
C1921      C1926   1.406       .  A
C1921      C1935   1.444       .  S
C1922      C1927   1.484       .  S
C1922      C1923   1.391       .  A
C1923      C1924   1.399       .  A
C1923      H1942   1.085       .  S
C1924      C1925   1.437       .  A
C1924      C1936   1.445       .  S
C1925      C1926   1.417   1_556  A
C1926      H1941   1.078       .  S
C1927      C1928   1.400       .  A
C1927      C1932   1.411       .  A
C1928      C1929   1.399       .  A
C1928      H1943   1.085       .  S
C1929      C1930   1.411       .  A
C1929      C1933   1.443       .  S
C1930      C1931   1.407       .  A
C1931      C1932   1.405       .  A
C1931      H1944   1.085       .  S
C1932      C1934   1.445   1_556  S
C1933      N1937   1.157       .  T
C1934      N1938   1.158       .  T
C1935      N1940   1.157       .  T
C1936      N1939   1.157       .  T
C1945      C1946   1.410   1_554  A
C1945      C1950   1.406       .  A
C1945      C1959   1.443       .  S
C1946      C1951   1.499       .  S
C1946      C1947   1.405       .  A
C1947      C1948   1.409       .  A
C1947      H1966   1.085       .  S
C1948      C1949   1.418       .  A
C1948      C1960   1.444       .  S
C1949      C1950   1.410   1_556  A
C1950      H1965   1.083       .  S
C1951      C1952   1.397   1_556  A
C1951      C1956   1.408       .  A
C1952      C1953   1.404       .  A
C1952      H1967   1.085       .  S
C1953      C1954   1.432   1_554  A
C1953      C1957   1.443       .  S
C1954      C1955   1.422       .  A
C1955      C1956   1.410       .  A
C1955      H1968   1.079       .  S
C1956      C1958   1.444       .  S
C1957      N1961   1.157       .  T
C1958      N1962   1.157       .  T
C1959      N1964   1.157       .  T
C1960      N1963   1.158       .  T
C1969      C1970   1.405       .  A
C1969      C1974   1.402       .  A
C1969      C1983   1.444       .  S
C1970      C1975   1.495       .  S
C1970      C1971   1.401       .  A
C1971      C1972   1.409       .  A
C1971      H1990   1.085       .  S
C1972      C1973   1.432       .  A
C1972      C1984   1.443       .  S
C1973      C1974   1.420       .  A
C1974      H1989   1.081       .  S
C1975      C1976   1.401   1_556  A
C1975      C1980   1.414       .  A
C1976      C1977   1.401       .  A
C1976      H1991   1.085       .  S
C1977      C1978   1.414   1_554  A
C1977      C1981   1.442       .  S
C1978      C1979   1.408       .  A
C1979      C1980   1.411       .  A
C1979      H1992   1.084       .  S
C1980      C1982   1.443       .  S
C1981      N1985   1.156       .  T
C1982      N1986   1.157       .  T
C1983      N1988   1.157   1_556  T
C1984      N1987   1.158       .  T
C1993      C1994   1.411       .  A
C1993      C1998   1.405       .  A
C1993      C2007   1.444       .  S
C1994      C1999   1.493       .  S
C1994      C1995   1.404       .  A
C1995      C1996   1.401       .  A
C1995      H2014   1.085       .  S
C1996      C1997   1.413       .  A
C1996      C2008   1.441       .  S
C1997      C1998   1.410       .  A
C1998      H2013   1.085       .  S
C1999      C2000   1.397       .  A
C1999      C2004   1.406       .  A
C2000      C2001   1.402       .  A
C2000      H2015   1.086       .  S
C2001      C2002   1.436       .  A
C2001      C2005   1.443       .  S
C2002      C2003   1.420       .  A
C2003      C2004   1.402       .  A
C2003      H2016   1.083       .  S
C2004      C2006   1.444       .  S
C2005      N2009   1.158       .  T
C2006      N2010   1.157       .  T
C2007      N2012   1.157       .  T
C2008      N2011   1.156       .  T
C2017      C2018   1.402       .  A
C2017      C2022   1.397       .  A
C2017      C2031   1.445       .  S
C2018      C2023   1.490       .  S
C2018      C2019   1.403       .  A
C2019      C2020   1.403       .  A
C2019      H2038   1.085       .  S
C2020      C2021   1.426       .  A
C2020      C2032   1.443       .  S
C2021      C2022   1.425       .  A
C2022      H2037   1.081       .  S
C2023      C2024   1.408       .  A
C2023      C2028   1.407       .  A
C2024      C2025   1.407       .  A
C2024      H2039   1.085       .  S
C2025      C2026   1.417       .  A
C2025      C2029   1.444       .  S
C2026      C2027   1.408       .  A
C2027      C2028   1.393       .  A
C2027      H2040   1.085       .  S
C2028      C2030   1.444       .  S
C2029      N2033   1.158       .  T
C2030      N2034   1.157       .  T
C2031      N2036   1.157       .  T
C2032      N2035   1.157       .  T
C2041      C2042   1.402       .  A
C2041      C2046   1.401       .  A
C2041      C2055   1.445       .  S
C2042      C2047   1.493       .  S
C2042      C2043   1.399       .  A
C2043      C2044   1.409       .  A
C2043      H2062   1.085       .  S
C2044      C2045   1.432       .  A
C2044      C2056   1.443       .  S
C2045      C2046   1.423       .  A
C2046      H2061   1.078       .  S
C2047      C2048   1.400   1_556  A
C2047      C2052   1.410       .  A
C2048      C2049   1.405       .  A
C2048      H2063   1.085       .  S
C2049      C2050   1.424   1_554  A
C2049      C2053   1.444       .  S
C2050      C2051   1.411       .  A
C2051      C2052   1.406       .  A
C2051      H2064   1.083       .  S
C2052      C2054   1.444       .  S
C2053      N2057   1.157       .  T
C2054      N2058   1.157       .  T
C2055      N2060   1.157       .  T
C2056      N2059   1.157       .  T
C2065      C2066   1.405   1_556  A
C2065      C2070   1.402       .  A
C2065      C2079   1.444       .  S
C2066      C2071   1.488       .  S
C2066      C2067   1.394       .  A
C2067      C2068   1.402       .  A
C2067      H2086   1.085       .  S
C2068      C2069   1.435       .  A
C2068      C2080   1.444       .  S
C2069      C2070   1.421   1_554  A
C2070      H2085   1.079       .  S
C2071      C2072   1.406       .  A
C2071      C2076   1.405   1_554  A
C2072      C2073   1.410       .  A
C2072      H2087   1.084       .  S
C2073      C2074   1.416       .  A
C2073      C2077   1.441       .  S
C2074      C2075   1.412   1_554  A
C2075      C2076   1.394       .  A
C2075      H2088   1.085       .  S
C2076      C2078   1.446       .  S
C2077      N2081   1.157   1_565  T
C2078      N2082   1.157       .  T
C2079      N2084   1.157       .  T
C2080      N2083   1.157       .  T
C2089      C2090   1.408       .  A
C2089      C2094   1.405       .  A
C2089      C2103   1.443       .  S
C2090      C2095   1.490       .  S
C2090      C2091   1.401   1_556  A
C2091      C2092   1.405       .  A
C2091      H2110   1.085       .  S
C2092      C2093   1.423       .  A
C2092      C2104   1.444       .  S
C2093      C2094   1.410   1_554  A
C2094      H2109   1.084       .  S
C2095      C2096   1.390   1_556  A
C2095      C2100   1.404       .  A
C2096      C2097   1.400       .  A
C2096      H2111   1.087       .  S
C2097      C2098   1.443       .  A
C2097      C2101   1.443       .  S
C2098      C2099   1.423   1_554  A
C2099      C2100   1.408       .  A
C2099      H2112   1.084       .  S
C2100      C2102   1.443       .  S
C2101      N2105   1.158       .  T
C2102      N2106   1.157       .  T
C2103      N2108   1.157       .  T
C2104      N2107   1.157       .  T
C2113      C2114   1.415       .  A
C2113      C2118   1.401       .  A
C2113      C2127   1.445       .  S
C2114      C2119   1.496       .  S
C2114      C2115   1.408       .  A
C2115      C2116   1.405       .  A
C2115      H2134   1.084       .  S
C2116      C2117   1.408       .  A
C2116      C2128   1.444       .  S
C2117      C2118   1.403       .  A
C2118      H2133   1.086       .  S
C2119      C2120   1.397       .  A
C2119      C2124   1.410   1_554  A
C2120      C2121   1.401       .  A
C2120      H2135   1.085       .  S
C2121      C2122   1.435       .  A
C2121      C2125   1.441       .  S
C2122      C2123   1.421   1_554  A
C2123      C2124   1.404       .  A
C2123      H2136   1.084       .  S
C2124      C2126   1.444       .  S
C2125      N2129   1.158       .  T
C2126      N2130   1.157       .  T
C2127      N2132   1.157       .  T
C2128      N2131   1.157       .  T
C2137      C2138   1.400       .  A
C2137      C2142   1.394       .  A
C2137      C2151   1.445       .  S
C2138      C2143   1.490       .  S
C2138      C2139   1.402       .  A
C2139      C2140   1.411       .  A
C2139      H2158   1.085       .  S
C2140      C2141   1.431       .  A
C2140      C2152   1.443       .  S
C2141      C2142   1.423       .  A
C2142      H2157   1.079       .  S
C2143      C2144   1.404       .  A
C2143      C2148   1.407   1_545  A
C2144      C2145   1.403       .  A
C2144      H2159   1.085       .  S
C2145      C2146   1.418       .  A
C2145      C2149   1.444       .  S
C2146      C2147   1.413   1_545  A
C2147      C2148   1.402       .  A
C2147      H2160   1.084       .  S
C2148      C2150   1.444       .  S
C2149      N2153   1.157       .  T
C2150      N2154   1.157       .  T
C2151      N2156   1.157       .  T
C2152      N2155   1.158       .  T
C2161      C2162   1.406       .  A
C2161      C2166   1.400       .  A
C2161      C2175   1.444       .  S
C2162      C2167   1.495       .  S
C2162      C2163   1.400   1_545  A
C2163      C2164   1.403       .  A
C2163      H2182   1.086       .  S
C2164      C2165   1.435   1_565  A
C2164      C2176   1.443       .  S
C2165      C2166   1.421       .  A
C2166      H2181   1.084       .  S
C2167      C2168   1.403   1_545  A
C2167      C2172   1.411       .  A
C2168      C2169   1.402       .  A
C2168      H2183   1.085       .  S
C2169      C2170   1.419   1_565  A
C2169      C2173   1.443       .  S
C2170      C2171   1.411       .  A
C2171      C2172   1.405       .  A
C2171      H2184   1.085       .  S
C2172      C2174   1.444       .  S
C2173      N2177   1.157       .  T
C2174      N2178   1.157       .  T
C2175      N2180   1.157       .  T
C2176      N2179   1.158       .  T
C2185      C2186   1.407       .  A
C2185      C2190   1.406       .  A
C2185      C2199   1.444       .  S
C2186      C2191   1.487       .  S
C2186      C2187   1.394       .  A
C2187      C2188   1.397       .  A
C2187      H2206   1.086       .  S
C2188      C2189   1.435       .  A
C2188      C2200   1.446       .  S
C2189      C2190   1.418       .  A
C2190      H2205   1.080       .  S
C2191      C2192   1.402       .  A
C2191      C2196   1.409       .  A
C2192      C2193   1.403       .  A
C2192      H2207   1.085       .  S
C2193      C2194   1.421       .  A
C2193      C2197   1.445       .  S
C2194      C2195   1.410       .  A
C2195      C2196   1.400       .  A
C2195      H2208   1.084       .  S
C2196      C2198   1.444       .  S
C2197      N2201   1.158   1_565  T
C2198      N2202   1.157       .  T
C2199      N2204   1.157       .  T
C2200      N2203   1.158       .  T
C2209      C2210   1.400       .  A
C2209      C2214   1.395       .  A
C2209      C2223   1.445       .  S
C2210      C2215   1.477       .  S
C2210      C2211   1.395       .  A
C2211      C2212   1.401       .  A
C2211      H2230   1.085       .  S
C2212      C2213   1.435       .  A
C2212      C2224   1.446       .  S
C2213      C2214   1.417       .  A
C2214      H2229   1.076       .  S
C2215      C2216   1.401       .  A
C2215      C2220   1.405       .  A
C2216      C2217   1.399       .  A
C2216      H2231   1.085       .  S
C2217      C2218   1.415       .  A
C2217      C2221   1.444       .  S
C2218      C2219   1.409       .  A
C2219      C2220   1.399       .  A
C2219      H2232   1.085       .  S
C2220      C2222   1.444       .  S
C2221      N2225   1.157       .  T
C2222      N2226   1.157       .  T
C2223      N2228   1.157       .  T
C2224      N2227   1.158       .  T
C2233      C2234   1.415       .  A
C2233      C2238   1.402       .  A
C2233      C2247   1.443       .  S
C2234      C2239   1.485       .  S
C2234      C2235   1.405       .  A
C2235      C2236   1.397       .  A
C2235      H2254   1.085       .  S
C2236      C2237   1.408       .  A
C2236      C2248   1.445       .  S
C2237      C2238   1.401       .  A
C2238      H2253   1.085       .  S
C2239      C2240   1.392       .  A
C2239      C2244   1.409       .  A
C2240      C2241   1.390       .  A
C2240      H2255   1.086       .  S
C2241      C2242   1.436       .  A
C2241      C2245   1.445       .  S
C2242      C2243   1.418       .  A
C2243      C2244   1.409       .  A
C2243      H2256   1.079       .  S
C2244      C2246   1.443       .  S
C2245      N2249   1.157       .  T
C2246      N2250   1.157       .  T
C2247      N2252   1.157       .  T
C2248      N2251   1.157       .  T
C2257      C2258   1.404       .  A
C2257      C2262   1.395       .  A
C2257      C2271   1.444       .  S
C2258      C2263   1.485       .  S
C2258      C2259   1.398       .  A
C2259      C2260   1.404       .  A
C2259      H2278   1.086       .  S
C2260      C2261   1.435       .  A
C2260      C2272   1.443       .  S
C2261      C2262   1.419       .  A
C2262      H2277   1.084       .  S
C2263      C2264   1.398       .  A
C2263      C2268   1.410       .  A
C2264      C2265   1.395       .  A
C2264      H2279   1.085       .  S
C2265      C2266   1.417       .  A
C2265      C2269   1.441       .  S
C2266      C2267   1.409       .  A
C2267      C2268   1.405       .  A
C2267      H2280   1.085       .  S
C2268      C2270   1.444       .  S
C2269      N2273   1.156       .  T
C2270      N2274   1.157       .  T
C2271      N2276   1.157       .  T
C2272      N2275   1.158       .  T
C2281      C2282   1.402       .  A
C2281      C2286   1.403       .  A
C2281      C2295   1.444       .  S
C2282      C2287   1.490       .  S
C2282      C2283   1.396       .  A
C2283      C2284   1.407       .  A
C2283      H2302   1.086       .  S
C2284      C2285   1.439       .  A
C2284      C2296   1.443       .  S
C2285      C2286   1.421       .  A
C2286      H2301   1.082       .  S
C2287      C2288   1.408       .  A
C2287      C2292   1.409       .  A
C2288      C2289   1.408       .  A
C2288      H2303   1.084       .  S
C2289      C2290   1.410       .  A
C2289      C2293   1.444       .  S
C2290      C2291   1.403       .  A
C2291      C2292   1.400       .  A
C2291      H2304   1.085       .  S
C2292      C2294   1.443       .  S
C2293      N2297   1.158       .  T
C2294      N2298   1.157       .  T
C2295      N2300   1.157       .  T
C2296      N2299   1.158       .  T
C2305      C2306   1.402       .  A
C2305      C2310   1.393       .  A
C2305      C2319   1.447       .  S
C2306      C2311   1.497       .  S
C2306      C2307   1.406       .  A
C2307      C2308   1.414       .  A
C2307      H2326   1.084       .  S
C2308      C2309   1.429       .  A
C2308      C2320   1.444       .  S
C2309      C2310   1.424       .  A
C2310      H2325   1.080   1_554  S
C2311      C2312   1.407       .  A
C2311      C2316   1.410       .  A
C2312      C2313   1.403       .  A
C2312      H2327   1.085       .  S
C2313      C2314   1.413       .  A
C2313      C2317   1.444       .  S
C2314      C2315   1.410       .  A
C2315      C2316   1.405       .  A
C2315      H2328   1.085       .  S
C2316      C2318   1.444       .  S
C2317      N2321   1.157       .  T
C2318      N2322   1.157       .  T
C2319      N2324   1.157       .  T
C2320      N2323   1.157       .  T
C2329      C2330   1.406       .  A
C2329      C2334   1.398       .  A
C2329      C2343   1.444       .  S
C2330      C2335   1.482       .  S
C2330      C2331   1.404       .  A
C2331      C2332   1.404       .  A
C2331      H2350   1.085       .  S
C2332      C2333   1.414       .  A
C2332      C2344   1.444       .  S
C2333      C2334   1.407       .  A
C2334      H2349   1.082       .  S
C2335      C2336   1.401       .  A
C2335      C2340   1.399       .  A
C2336      C2337   1.411       .  A
C2336      H2351   1.085       .  S
C2337      C2338   1.433       .  A
C2337      C2341   1.441       .  S
C2338      C2339   1.422       .  A
C2339      C2340   1.389       .  A
C2339      H2352   1.083       .  S
C2340      C2342   1.446       .  S
C2341      N2345   1.158       .  T
C2342      N2346   1.157       .  T
C2343      N2348   1.157       .  T
C2344      N2347   1.157       .  T
C2353      C2354   1.410       .  A
C2353      C2358   1.401       .  A
C2353      C2367   1.443       .  S
C2354      C2359   1.489       .  S
C2354      C2355   1.408       .  A
C2355      C2356   1.398       .  A
C2355      H2374   1.085       .  S
C2356      C2357   1.409       .  A
C2356      C2368   1.444       .  S
C2357      C2358   1.406       .  A
C2358      H2373   1.084       .  S
C2359      C2360   1.401       .  A
C2359      C2364   1.403       .  A
C2360      C2361   1.407       .  A
C2360      H2375   1.084       .  S
C2361      C2362   1.430       .  A
C2361      C2365   1.442       .  S
C2362      C2363   1.422       .  A
C2363      C2364   1.394       .  A
C2363      H2376   1.080   1_554  S
C2364      C2366   1.446       .  S
C2365      N2369   1.157       .  T
C2366      N2370   1.157       .  T
C2367      N2372   1.157       .  T
C2368      N2371   1.157   1_565  T
C2377      C2378   1.407       .  A
C2377      C2382   1.396       .  A
C2377      C2391   1.446       .  S
C2378      C2383   1.485       .  S
C2378      C2379   1.399       .  A
C2379      C2380   1.403       .  A
C2379      H2398   1.085       .  S
C2380      C2381   1.430       .  A
C2380      C2392   1.443       .  S
C2381      C2382   1.418       .  A
C2382      H2397   1.078       .  S
C2383      C2384   1.405       .  A
C2383      C2388   1.405       .  A
C2384      C2385   1.402       .  A
C2384      H2399   1.084       .  S
C2385      C2386   1.414       .  A
C2385      C2389   1.443       .  S
C2386      C2387   1.414       .  A
C2387      C2388   1.396       .  A
C2387      H2400   1.083       .  S
C2388      C2390   1.445       .  S
C2389      N2393   1.157       .  T
C2390      N2394   1.157       .  T
C2391      N2396   1.157       .  T
C2392      N2395   1.157       .  T
C2401      C2402   1.409       .  A
C2401      C2406   1.398       .  A
C2401      C2415   1.444       .  S
C2402      C2407   1.482       .  S
C2402      C2403   1.403       .  A
C2403      C2404   1.399       .  A
C2403      H2422   1.085       .  S
C2404      C2405   1.414       .  A
C2404      C2416   1.445       .  S
C2405      C2406   1.405       .  A
C2406      H2421   1.085       .  S
C2407      C2408   1.396       .  A
C2407      C2412   1.403       .  A
C2408      C2409   1.399       .  A
C2408      H2423   1.085       .  S
C2409      C2410   1.433       .  A
C2409      C2413   1.445       .  S
C2410      C2411   1.420       .  A
C2411      C2412   1.397       .  A
C2411      H2424   1.079       .  S
C2412      C2414   1.445       .  S
C2413      N2417   1.158       .  T
C2414      N2418   1.157       .  T
C2415      N2420   1.157       .  T
C2416      N2419   1.158       .  T
C2425      C2426   1.403       .  A
C2425      C2430   1.398       .  A
C2425      C2439   1.445       .  S
C2426      C2431   1.479       .  S
C2426      C2427   1.395       .  A
C2427      C2428   1.397       .  A
C2427      H2446   1.085       .  S
C2428      C2429   1.432       .  A
C2428      C2440   1.446       .  S
C2429      C2430   1.420       .  A
C2430      H2445   1.079       .  S
C2431      C2432   1.397       .  A
C2431      C2436   1.407       .  A
C2432      C2433   1.400       .  A
C2432      H2447   1.085       .  S
C2433      C2434   1.427       .  A
C2433      C2437   1.446       .  S
C2434      C2435   1.408       .  A
C2435      C2436   1.398       .  A
C2435      H2448   1.084       .  S
C2436      C2438   1.444       .  S
C2437      N2441   1.158       .  T
C2438      N2442   1.157       .  T
C2439      N2444   1.157       .  T
C2440      N2443   1.157       .  T
C2449      C2450   1.401       .  A
C2449      C2454   1.385       .  A
C2449      C2463   1.447       .  S
C2450      C2455   1.467       .  S
C2450      C2451   1.404       .  A
C2451      C2452   1.404       .  A
C2451      H2470   1.084       .  S
C2452      C2453   1.412       .  A
C2452      C2464   1.442       .  S
C2453      C2454   1.410       .  A
C2454      H2469   1.084       .  S
C2455      C2456   1.395       .  A
C2455      C2460   1.397       .  A
C2456      C2457   1.397       .  A
C2456      H2471   1.085       .  S
C2457      C2458   1.431       .  A
C2457      C2461   1.445       .  S
C2458      C2459   1.422       .  A
C2459      C2460   1.392       .  A
C2459      H2472   1.078       .  S
C2460      C2462   1.446       .  S
C2461      N2465   1.157       .  T
C2462      N2466   1.157       .  T
C2463      N2468   1.157       .  T
C2464      N2467   1.157       .  T
C2473      C2474   1.409   1_565  A
C2473      C2478   1.396       .  A
C2473      C2487   1.445       .  S
C2474      C2479   1.485       .  S
C2474      C2475   1.404       .  A
C2475      C2476   1.401       .  A
C2475      H2494   1.085       .  S
C2476      C2477   1.416       .  A
C2476      C2488   1.445       .  S
C2477      C2478   1.407   1_545  A
C2478      H2493   1.085       .  S
C2479      C2480   1.396   1_545  A
C2479      C2484   1.404       .  A
C2480      C2481   1.398       .  A
C2480      H2495   1.085       .  S
C2481      C2482   1.431   1_565  A
C2481      C2485   1.442       .  S
C2482      C2483   1.423       .  A
C2483      C2484   1.399       .  A
C2483      H2496   1.079       .  S
C2484      C2486   1.446       .  S
C2485      N2489   1.157       .  T
C2486      N2490   1.157       .  T
C2487      N2492   1.157       .  T
C2488      N2491   1.157       .  T
C2497      C2498   1.411       .  A
C2497      C2502   1.408       .  A
C2497      C2511   1.444       .  S
C2498      C2503   1.501       .  S
C2498      C2499   1.399   1_545  A
C2499      C2500   1.400       .  A
C2499      H2518   1.085       .  S
C2500      C2501   1.434   1_565  A
C2500      C2512   1.446       .  S
C2501      C2502   1.420       .  A
C2502      H2517   1.078       .  S
C2503      C2504   1.402   1_545  A
C2503      C2508   1.415       .  A
C2504      C2505   1.401       .  A
C2504      H2519   1.085       .  S
C2505      C2506   1.422   1_565  A
C2505      C2509   1.444       .  S
C2506      C2507   1.410       .  A
C2507      C2508   1.408       .  A
C2507      H2520   1.084       .  S
C2508      C2510   1.444       .  S
C2509      N2513   1.157       .  T
C2510      N2514   1.157       .  T
C2511      N2516   1.157       .  T
C2512      N2515   1.157       .  T
C2521      C2522   1.414       .  A
C2521      C2526   1.398       .  A
C2521      C2535   1.444       .  S
C2522      C2527   1.481       .  S
C2522      C2523   1.401       .  A
C2523      C2524   1.402       .  A
C2523      H2542   1.085       .  S
C2524      C2525   1.412       .  A
C2524      C2536   1.442       .  S
C2525      C2526   1.398       .  A
C2526      H2541   1.085       .  S
C2527      C2528   1.386       .  A
C2527      C2532   1.406       .  A
C2528      C2529   1.391       .  A
C2528      H2543   1.087       .  S
C2529      C2530   1.443       .  A
C2529      C2533   1.443       .  S
C2530      C2531   1.419       .  A
C2531      C2532   1.410       .  A
C2531      H2544   1.084       .  S
C2532      C2534   1.441       .  S
C2533      N2537   1.157       .  T
C2534      N2538   1.157       .  T
C2535      N2540   1.157       .  T
C2536      N2539   1.156       .  T
C2545      C2546   1.404       .  A
C2545      C2550   1.399       .  A
C2545      C2559   1.444       .  S
C2546      C2551   1.480       .  S
C2546      C2547   1.394       .  A
C2547      C2548   1.395       .  A
C2547      H2566   1.086       .  S
C2548      C2549   1.434       .  A
C2548      C2560   1.446       .  S
C2549      C2550   1.418       .  A
C2550      H2565   1.079       .  S
C2551      C2552   1.398       .  A
C2551      C2556   1.408       .  A
C2552      C2553   1.397       .  A
C2552      H2567   1.085       .  S
C2553      C2554   1.423       .  A
C2553      C2557   1.445       .  S
C2554      C2555   1.409       .  A
C2555      C2556   1.400       .  A
C2555      H2568   1.084       .  S
C2556      C2558   1.444       .  S
C2557      N2561   1.157       .  T
C2558      N2562   1.157       .  T
C2559      N2564   1.157       .  T
C2560      N2563   1.158       .  T
C2569      C2570   1.414       .  A
C2569      C2574   1.395       .  A
C2569      C2583   1.446       .  S
C2570      C2575   1.481       .  S
C2570      C2571   1.403       .  A
C2571      C2572   1.400       .  A
C2571      H2590   1.085       .  S
C2572      C2573   1.410       .  A
C2572      C2584   1.444       .  S
C2573      C2574   1.398       .  A
C2574      H2589   1.084       .  S
C2575      C2576   1.392       .  A
C2575      C2580   1.407       .  A
C2576      C2577   1.389       .  A
C2576      H2591   1.086       .  S
C2577      C2578   1.435       .  A
C2577      C2581   1.446       .  S
C2578      C2579   1.418       .  A
C2579      C2580   1.404       .  A
C2579      H2592   1.080       .  S
C2580      C2582   1.444       .  S
C2581      N2585   1.158       .  T
C2582      N2586   1.157       .  T
C2583      N2588   1.157       .  T
C2584      N2587   1.157   1_565  T
C2593      C2594   1.408       .  A
C2593      C2598   1.403       .  A
C2593      C2607   1.444       .  S
C2594      C2599   1.493       .  S
C2594      C2595   1.397       .  A
C2595      C2596   1.402       .  A
C2595      H2614   1.085       .  S
C2596      C2597   1.434       .  A
C2596      C2608   1.445       .  S
C2597      C2598   1.418       .  A
C2598      H2613   1.079       .  S
C2599      C2600   1.403       .  A
C2599      C2604   1.412       .  A
C2600      C2601   1.402       .  A
C2600      H2615   1.085       .  S
C2601      C2602   1.416       .  A
C2601      C2605   1.443       .  S
C2602      C2603   1.409       .  A
C2603      C2604   1.405       .  A
C2603      H2616   1.085       .  S
C2604      C2606   1.444       .  S
C2605      N2609   1.157       .  T
C2606      N2610   1.157       .  T
C2607      N2612   1.157       .  T
C2608      N2611   1.158       .  T
C2617      C2618   1.410       .  A
C2617      C2622   1.402       .  A
C2617      C2631   1.444       .  S
C2618      C2623   1.508       .  S
C2618      C2619   1.405       .  A
C2619      C2620   1.413       .  A
C2619      H2638   1.085       .  S
C2620      C2621   1.433       .  A
C2620      C2632   1.441       .  S
C2621      C2622   1.421       .  A
C2622      H2637   1.084       .  S
C2623      C2624   1.404       .  A
C2623      C2628   1.416       .  A
C2624      C2625   1.406       .  A
C2624      H2639   1.085       .  S
C2625      C2626   1.423       .  A
C2625      C2629   1.444       .  S
C2626      C2627   1.409       .  A
C2627      C2628   1.409       .  A
C2627      H2640   1.084       .  S
C2628      C2630   1.444       .  S
C2629      N2633   1.157       .  T
C2630      N2634   1.157       .  T
C2631      N2636   1.157       .  T
C2632      N2635   1.158       .  T
C2641      C2642   1.411       .  A
C2641      C2646   1.403       .  A
C2641      C2655   1.444       .  S
C2642      C2647   1.493       .  S
C2642      C2643   1.404       .  A
C2643      C2644   1.403       .  A
C2643      H2662   1.085       .  S
C2644      C2645   1.417       .  A
C2644      C2656   1.443       .  S
C2645      C2646   1.407       .  A
C2646      H2661   1.085       .  S
C2647      C2648   1.398       .  A
C2647      C2652   1.405       .  A
C2648      C2649   1.404       .  A
C2648      H2663   1.085       .  S
C2649      C2650   1.431       .  A
C2649      C2653   1.441       .  S
C2650      C2651   1.422       .  A
C2651      C2652   1.401       .  A
C2651      H2664   1.080       .  S
C2652      C2654   1.445       .  S
C2653      N2657   1.157       .  T
C2654      N2658   1.157       .  T
C2655      N2660   1.157       .  T
C2656      N2659   1.157       .  T
C2665      C2666   1.404       .  A
C2665      C2670   1.404       .  A
C2665      C2679   1.443       .  S
C2666      C2671   1.484       .  S
C2666      C2667   1.389       .  A
C2667      C2668   1.398       .  A
C2667      H2686   1.087       .  S
C2668      C2669   1.440       .  A
C2668      C2680   1.442       .  S
C2669      C2670   1.420       .  A
C2670      H2685   1.082       .  S
C2671      C2672   1.404       .  A
C2671      C2676   1.412       .  A
C2672      C2673   1.402       .  A
C2672      H2687   1.084       .  S
C2673      C2674   1.409       .  A
C2673      C2677   1.445       .  S
C2674      C2675   1.401       .  A
C2675      C2676   1.400       .  A
C2675      H2688   1.085       .  S
C2676      C2678   1.444       .  S
C2677      N2681   1.157       .  T
C2678      N2682   1.157       .  T
C2679      N2684   1.157       .  T
C2680      N2683   1.157   1_556  T
C2689      C2690   1.412       .  A
C2689      C2694   1.404       .  A
C2689      C2703   1.443       .  S
C2690      C2695   1.496       .  S
C2690      C2691   1.401       .  A
C2691      C2692   1.406       .  A
C2691      H2710   1.085       .  S
C2692      C2693   1.423       .  A
C2692      C2704   1.444       .  S
C2693      C2694   1.406       .  A
C2694      H2709   1.085       .  S
C2695      C2696   1.394       .  A
C2695      C2700   1.408       .  A
C2696      C2697   1.401       .  A
C2696      H2711   1.086       .  S
C2697      C2698   1.435       .  A
C2697      C2701   1.442       .  S
C2698      C2699   1.420       .  A
C2699      C2700   1.410       .  A
C2699      H2712   1.080       .  S
C2700      C2702   1.443       .  S
C2701      N2705   1.157   1_556  T
C2702      N2706   1.157       .  T
C2703      N2708   1.157       .  T
C2704      N2707   1.157       .  T
C2713      C2714   1.413       .  A
C2713      C2718   1.406       .  A
C2713      C2727   1.443       .  S
C2714      C2719   1.498       .  S
C2714      C2715   1.406       .  A
C2715      C2716   1.400       .  A
C2715      H2734   1.085       .  S
C2716      C2717   1.413       .  A
C2716      C2728   1.444       .  S
C2717      C2718   1.410       .  A
C2718      H2733   1.085       .  S
C2719      C2720   1.405       .  A
C2719      C2724   1.407       .  A
C2720      C2721   1.411       .  A
C2720      H2735   1.084       .  S
C2721      C2722   1.428       .  A
C2721      C2725   1.443       .  S
C2722      C2723   1.422       .  A
C2723      C2724   1.395       .  A
C2723      H2736   1.081       .  S
C2724      C2726   1.447       .  S
C2725      N2729   1.157       .  T
C2726      N2730   1.157       .  T
C2727      N2732   1.157       .  T
C2728      N2731   1.157   1_565  T
C2737      C2738   1.412       .  A
C2737      C2742   1.406       .  A
C2737      C2751   1.444       .  S
C2738      C2743   1.485       .  S
C2738      C2739   1.401       .  A
C2739      C2740   1.399       .  A
C2739      H2758   1.085       .  S
C2740      C2741   1.413       .  A
C2740      C2752   1.444       .  S
C2741      C2742   1.404       .  A
C2742      H2757   1.084       .  S
C2743      C2744   1.391       .  A
C2743      C2748   1.408       .  A
C2744      C2745   1.393       .  A
C2744      H2759   1.086       .  S
C2745      C2746   1.436       .  A
C2745      C2749   1.446       .  S
C2746      C2747   1.417       .  A
C2747      C2748   1.408       .  A
C2747      H2760   1.080       .  S
C2748      C2750   1.443       .  S
C2749      N2753   1.157       .  T
C2750      N2754   1.157       .  T
C2751      N2756   1.157       .  T
C2752      N2755   1.157       .  T
