geometry optimzed in LAMMPS
_audit_creation_date              2020-11-30 
_audit_creation_method            'lammps2cif' 
_symmetry_space_group_name_H-M    'P1' 
_symmetry_Int_Tables_number       1 
_symmetry_cell_setting            triclinic 
loop_ 
_symmetry_equiv_pos_as_xyz 
  x,y,z 
_cell_length_a                    49.18895117 
_cell_length_b                    30.212091201669818 
_cell_length_c                    29.24577246671477 
_cell_angle_alpha                 89.98247359779411 
_cell_angle_beta                  89.93491934188998 
_cell_angle_gamma                 90.01084962068077 
loop_ 
_atom_site_label 
_atom_site_type_symbol 
_atom_site_fract_x 
_atom_site_fract_y 
_atom_site_fract_z 
_atom_site_charge 
C1          C  0.00424883  0.12261289  0.14453705     0.80500
N2          N  0.02000495  0.11173689  0.10812667    -0.77800
C3          C  0.04252167  0.13553973  0.09785211     0.82900
N4          N  0.04874320  0.17112895  0.12392527    -0.77800
C5          C  0.03316164  0.18256885  0.16028398     0.83000
N6          N  0.01098856  0.15778302  0.17122886    -0.79500
O7          O  0.91156863  0.91476211  0.03202125    -0.78300
C8          C  0.82896912  0.96172751  0.07204490     0.82800
O9          O  0.91760377  0.96605912  0.18828692    -0.79400
O10         O  0.82958408  0.88286841  0.20631835    -0.80900
O11         O  0.86800739  0.79424749  0.08562456    -0.80700
O12         O  0.92197973  0.84664967  0.05365752    -0.79300
Zn13       Zn  0.88846502  0.93683367  0.08521765     1.55700
O14         O  0.82838805  0.82465835  0.10559207    -0.80700
Cd15       Cd  0.89735740  0.83615597  0.10866230     1.59700
Cd16       Cd  0.89679796  0.90614684  0.19164778     1.59600
O17         O  0.92082371  0.80557657  0.15694460    -0.80700
O18         O  0.88064600  0.89173169  0.13059336    -1.91200
Cd19       Cd  0.84046112  0.88358020  0.13710100     1.59900
O20         O  0.92424721  0.85698798  0.21098536    -0.80600
O21         O  0.82059789  0.93503987  0.10293463    -0.79300
C22         C  0.92085532  0.99217286  0.15440007     0.83300
C23         C  0.92416333  0.87843877  0.02553069     0.82900
O24         O  0.85392687  0.96389064  0.06049039    -0.78200
C25         C  0.84216692  0.79425058  0.08601535     0.83700
O26         O  0.91022606  0.98409005  0.11557133    -0.78300
C27         C  0.93058558  0.81917463  0.19465624     0.83900
C28         C  0.84198507  0.89469757  0.24275261     0.84200
O29         O  0.86672846  0.90760578  0.24210293    -0.80800
C30         C  0.76390211  0.58560473  0.98498518     0.80500
N31         N  0.77370077  0.62086815  0.00871122    -0.77800
C32         C  0.79263694  0.64793415  0.98979777     0.82900
N33         N  0.80217530  0.63850188  0.94745398    -0.77800
C34         C  0.79277552  0.60341992  0.92343256     0.83000
N35         N  0.77338918  0.57692953  0.94212843    -0.79500
C36         C  0.01907836  0.63167885  0.31521036     0.80500
N37         N  0.01124397  0.66531546  0.28728194    -0.77800
C38         C  0.99040796  0.69213807  0.30022696     0.82900
N39         N  0.97722054  0.68432850  0.34009002    -0.77800
C40         C  0.98447913  0.65029351  0.36756792     0.83000
N41         N  0.00559088  0.62412991  0.35499424    -0.79500
O42         O  0.10792685  0.41582208  0.42439197    -0.78300
C43         C  0.18962200  0.46261801  0.38139586     0.82800
O44         O  0.09796072  0.46485188  0.26969868    -0.79400
O45         O  0.18700952  0.38592874  0.24879891    -0.80900
O46         O  0.15113297  0.29472409  0.37317593    -0.80700
O47         O  0.09744583  0.34710161  0.40383950    -0.79300
Zn48       Zn  0.12983598  0.43805729  0.37039324     1.55700
O49         O  0.19026024  0.32502410  0.35113028    -0.80700
Cd50       Cd  0.12148818  0.33568815  0.34897774     1.59700
Cd51       Cd  0.11850279  0.40472096  0.26733991     1.59600
O52         O  0.09801951  0.30337893  0.30188479    -0.80700
O53         O  0.13708841  0.39171205  0.32642195    -1.91200
Cd54       Cd  0.17735222  0.38372437  0.31853660     1.59900
O55         O  0.09130399  0.35494825  0.24891301    -0.80600
O56         O  0.19774325  0.43512917  0.35120594    -0.79300
C57         C  0.09644014  0.49277756  0.30230279     0.83300
C58         C  0.09590806  0.37914374  0.43173464     0.82900
O59         O  0.16471088  0.46525382  0.39312050    -0.78200
C60         C  0.17697768  0.29485228  0.37228168     0.83700
O61         O  0.10797462  0.48587326  0.34060847    -0.78300
C62         C  0.08671676  0.31648680  0.26525135     0.83900
C63         C  0.17270652  0.39621277  0.21384013     0.84200
O64         O  0.14751634  0.40582178  0.21676959    -0.80800
C65         C  0.25576379  0.08951460  0.47490434     0.80500
N66         N  0.24956025  0.08284435  0.51976904    -0.77800
C67         C  0.23351099  0.11210775  0.54246655     0.82900
N68         N  0.22315059  0.14755348  0.51998262    -0.77800
C69         C  0.22918895  0.15456024  0.47524449     0.83000
N70         N  0.24553774  0.12549079  0.45292071    -0.79500
C71         C  0.00303554  0.36146693  0.65282012     0.80500
N72         N  0.01132173  0.32649182  0.67870006    -0.77800
C73         C  0.03286227  0.30164529  0.66457317     0.82900
N74         N  0.04580950  0.31239537  0.62521129    -0.77800
C75         C  0.03785141  0.34741126  0.59969544     0.83000
N76         N  0.01631264  0.37176605  0.61354288    -0.79500
O77         O  0.85340226  0.51941698  0.56377085    -0.78300
C78         C  0.91989218  0.60947716  0.52738652     0.82800
O79         O  0.91845202  0.52082285  0.69064620    -0.79400
O80         O  0.91887384  0.68082828  0.65742400    -0.80900
O81         O  0.82382121  0.65488829  0.60993634    -0.80700
O82         O  0.81992822  0.54548909  0.60770145    -0.79300
Zn83       Zn  0.88805141  0.54644104  0.58887878     1.55700
O84         O  0.86232234  0.68983454  0.59216496    -0.80700
Cd85       Cd  0.83887793  0.59736142  0.64161122     1.59700
Cd86       Cd  0.89750014  0.57986672  0.69272394     1.59600
O87         O  0.82920754  0.59482706  0.71113128    -0.80700
O88         O  0.87933277  0.59220552  0.63327634    -1.91200
Cd89       Cd  0.89343491  0.64983173  0.61187286     1.59900
O90         O  0.86888279  0.57792977  0.74382936    -0.80600
O91         O  0.91535087  0.64198753  0.55375393    -0.79300
C92         C  0.92111619  0.49261445  0.65860367     0.83300
C93         C  0.82843139  0.52038707  0.57563094     0.82900
O94         O  0.91069094  0.57086774  0.53599579    -0.78200
C95         C  0.83655949  0.68681858  0.59088736     0.83700
O96         O  0.91011557  0.49822099  0.61951716    -0.78300
C97         C  0.84350851  0.58603425  0.74648945     0.83900
C98         C  0.92997865  0.66725158  0.69408343     0.84200
O99         O  0.92464615  0.62930498  0.71090041    -0.80800
C100        C  0.76659737  0.89873247  0.48577616     0.80500
N101        N  0.77700928  0.90732966  0.44341776    -0.77800
C102        C  0.79297829  0.87678079  0.42214648     0.82900
N103        N  0.79880110  0.83818913  0.44377562    -0.77800
C104        C  0.78901952  0.82954283  0.48634312     0.83000
N105        N  0.77276409  0.85988221  0.50690889    -0.79500
C106        C  0.01574799  0.86413878  0.80054779     0.80500
N107        N  0.00356596  0.87485452  0.84080015    -0.77800
C108        C  0.98324274  0.84933557  0.85755747     0.82900
N109        N  0.97532105  0.81306991  0.83404972    -0.77800
C110        C  0.98716727  0.80182505  0.79389928     0.83000
N111        N  0.00756525  0.82762190  0.77692777    -0.79500
O112        O  0.16589438  0.00919745  0.88372752    -0.78300
C113        C  0.10184530  0.09749286  0.93313491     0.82800
O114        O  0.10344770  0.02082267  0.75923168    -0.79400
O115        O  0.09634223  0.17440006  0.80399736    -0.80900
O116        O  0.19175129  0.15967090  0.85416176    -0.80700
O117        O  0.20061307  0.04986196  0.85863756    -0.79300
Zn118      Zn  0.13186997  0.04075566  0.86405138     1.55700
O119        O  0.15141228  0.19044053  0.86799923    -0.80700
Cd120      Cd  0.18080620  0.10020217  0.82310012     1.59700
Cd121      Cd  0.12536574  0.08000602  0.76210417     1.59600
O122        O  0.19400410  0.10044689  0.75571549    -0.80700
O123        O  0.14039355  0.09053342  0.82465772    -1.91200
Cd124      Cd  0.12306712  0.14499507  0.84866750     1.59900
O125        O  0.15729436  0.08030109  0.71574675    -0.80600
O126        O  0.10360932  0.13175838  0.90819223    -0.79300
C127        C  0.09894284  0.99246182  0.79069398     0.83300
C128        C  0.19132605  0.01631220  0.88010123     0.82900
O129        O  0.11162024  0.06025364  0.92101084    -0.78200
C130        C  0.17719716  0.19090710  0.87028112     0.83700
O131        O  0.10867035  0.99704961  0.83073625    -0.78300
C132        C  0.18243765  0.09082880  0.71793529     0.83900
C133        C  0.08958978  0.16493544  0.76317814     0.84200
O134        O  0.09894253  0.13065822  0.74309428    -0.80800
C135        C  0.24936796  0.40417356  0.97234578     0.80500
N136        N  0.24116279  0.36741956  0.94944909    -0.77800
C137        C  0.22249348  0.33974673  0.96790316     0.82900
N138        N  0.21218529  0.34919346  0.00970331    -0.77800
C139        C  0.22014536  0.38550732  0.03334471     0.83000
N140        N  0.23878004  0.41343548  0.01442588    -0.79500
C141        C  0.50776304  0.61497963  0.15440421     0.80500
N142        N  0.50080921  0.65108064  0.17979496    -0.77800
C143        C  0.47843731  0.67514891  0.16808606     0.82900
N144        N  0.46322146  0.66246356  0.13178139    -0.77800
C145        C  0.46987801  0.62645979  0.10662255     0.83000
N146        N  0.49240551  0.60313577  0.11783822    -0.79500
O147        O  0.66494742  0.46884786  0.06655068    -0.78300
C148        C  0.60237380  0.37575609  0.02144464     0.82800
O149        O  0.60000410  0.46548153  0.18843752    -0.79400
O150        O  0.59720009  0.30776052  0.15430710    -0.80900
O151        O  0.69307746  0.32438627  0.10748688    -0.80700
O152        O  0.69918056  0.43614422  0.10336973    -0.79300
Zn153      Zn  0.63071568  0.43876702  0.08727872     1.55700
O154        O  0.65329172  0.29220786  0.09424031    -0.80700
Cd155      Cd  0.67993165  0.38468373  0.13823641     1.59700
Cd156      Cd  0.62173192  0.40659877  0.19110822     1.59600
O157        O  0.69008132  0.38837302  0.20814339    -0.80700
O158        O  0.63941358  0.39281290  0.13133499    -1.91200
Cd159      Cd  0.62376102  0.33636305  0.10969872     1.59900
O160        O  0.65099263  0.40847154  0.24142571    -0.80600
O161        O  0.60403112  0.34378337  0.04937467    -0.79300
C162        C  0.59543724  0.49152002  0.15498419     0.83300
C163        C  0.69018579  0.46537588  0.07564383     0.82900
O164        O  0.61201550  0.41381123  0.03102648    -0.78200
C165        C  0.67902773  0.29204905  0.09180973     0.83700
O166        O  0.60588721  0.48464467  0.11566978    -0.78300
C167        C  0.67619921  0.39873032  0.24367755     0.83900
C168        C  0.58774424  0.32036859  0.19254009     0.84200
O169        O  0.59467395  0.35716396  0.21040567    -0.80800
C170        C  0.75459551  0.08297897  0.98257052     0.80500
N171        N  0.74474152  0.07598383  0.93952450    -0.77800
C172        C  0.72577473  0.10381100  0.92148270     0.82900
N173        N  0.71672786  0.13850810  0.94681821    -0.77800
C174        C  0.72687822  0.14656380  0.98919295     0.83000
N175        N  0.74560477  0.11848195  0.00698931    -0.79500
C176        C  0.50212332  0.12436307  0.30436531     0.80500
N177        N  0.51712398  0.11269964  0.34151893    -0.77800
C178        C  0.53977327  0.13578648  0.35268261     0.82900
N179        N  0.54688929  0.17109664  0.32694122    -0.77800
C180        C  0.53218094  0.18326508  0.28991021     0.83000
N181        N  0.50972121  0.15953998  0.27816918    -0.79500
O182        O  0.35151510  0.96957612  0.38942460    -0.78300
C183        C  0.41848196  0.88274613  0.43152437     0.82800
O184        O  0.41623392  0.96645891  0.26443736    -0.79400
O185        O  0.41735879  0.80652254  0.30302506    -0.80900
O186        O  0.32376811  0.82845077  0.34746613    -0.80700
O187        O  0.31735176  0.93991370  0.34975006    -0.79300
Zn188      Zn  0.38603575  0.94150890  0.36728531     1.55700
O189        O  0.36290669  0.79856100  0.37040917    -0.80700
Cd190      Cd  0.33712485  0.88787379  0.31614374     1.59700
Cd191      Cd  0.39587259  0.90597161  0.26367700     1.59600
O192        O  0.32727838  0.88943337  0.24634340    -0.80700
O193        O  0.37766175  0.89489498  0.32382794    -1.91200
Cd194      Cd  0.39294144  0.83936859  0.34816229     1.59900
O195        O  0.36700464  0.90461156  0.21237811    -0.80600
O196        O  0.41568332  0.85021788  0.40455838    -0.79300
C197        C  0.41899931  0.99442016  0.29681977     0.83300
C198        C  0.32635619  0.96726874  0.37941727     0.82900
O199        O  0.40776396  0.92022672  0.42279362    -0.78200
C200        C  0.33712069  0.79836031  0.36856959     0.83700
O201        O  0.40817511  0.98807789  0.33589731    -0.78300
C202        C  0.34154323  0.89664283  0.21047489     0.83900
C203        C  0.42824447  0.81808234  0.26547890     0.84200
O204        O  0.42323289  0.85558247  0.24717950    -0.80800
C205        C  0.26394970  0.58372809  0.47005657     0.80500
N206        N  0.27313971  0.61950502  0.44625414    -0.77800
C207        C  0.29098407  0.64837499  0.46548783     0.82900
N208        N  0.30003719  0.64030812  0.50858766    -0.77800
C209        C  0.29100587  0.60494504  0.53283008     0.83000
N210        N  0.27286553  0.57670450  0.51353688    -0.79500
C211        C  0.50833145  0.36265094  0.80386464     0.80500
N212        N  0.51448744  0.32737777  0.77693382    -0.77800
C213        C  0.53559601  0.30053657  0.78851911     0.82900
N214        N  0.55040345  0.30939245  0.82653560    -0.77800
C215        C  0.54466133  0.34499779  0.85285852     0.83000
N216        N  0.52335945  0.37116300  0.84170420    -0.79500
O217        O  0.40437925  0.56002947  0.92386641    -0.78300
C218        C  0.32550321  0.51682613  0.87784995     0.82800
O219        O  0.41852811  0.51530924  0.76542810    -0.79400
O220        O  0.32810509  0.59329200  0.74583190    -0.80900
O221        O  0.36557335  0.68384585  0.86634570    -0.80700
O222        O  0.41546577  0.62950529  0.90756700    -0.79300
Zn223      Zn  0.38556817  0.53905793  0.86598436     1.55700
O224        O  0.32588683  0.65558560  0.84481666    -0.80700
Cd225      Cd  0.39518506  0.64073356  0.84782399     1.59700
Cd226      Cd  0.39651960  0.57429027  0.76265902     1.59600
O227        O  0.42059819  0.67166998  0.80266633    -0.80700
O228        O  0.37863650  0.58640855  0.82294055    -1.91200
Cd229      Cd  0.33834742  0.59590351  0.81526991     1.59900
O230        O  0.42317214  0.62521767  0.74396910    -0.80600
O231        O  0.31724605  0.54776830  0.85162792    -0.79300
C232        C  0.42178105  0.48849910  0.79875251     0.83300
C233        C  0.41545941  0.59664635  0.93467195     0.82900
O234        O  0.35068585  0.50975031  0.88484893    -0.78200
C235        C  0.33979771  0.68539386  0.86498397     0.83700
O236        O  0.41001733  0.49464271  0.83700875    -0.78300
C237        C  0.42971876  0.66154942  0.76333950     0.83900
C238        C  0.34175131  0.58304212  0.71007281     0.84200
O239        O  0.36691945  0.57279847  0.71225638    -0.80800
C240        C  0.26418751  0.89416296  0.97017571     0.80500
N241        N  0.27488838  0.90288528  0.01228424    -0.77800
C242        C  0.29270025  0.87398066  0.03169697     0.82900
N243        N  0.29969223  0.83690535  0.00852677    -0.77800
C244        C  0.28937579  0.82789955  0.96660683     0.83000
N245        N  0.27149082  0.85662884  0.94755235    -0.79500
C246        C  0.51324723  0.85919085  0.64892226     0.80500
N247        N  0.50565549  0.82414377  0.67521513    -0.77800
C248        C  0.48444039  0.79831445  0.66179951     0.82900
N249        N  0.47081781  0.80811280  0.62282869    -0.77800
C250        C  0.47806974  0.84346751  0.59694274     0.83000
N251        N  0.49931598  0.86889310  0.61019605    -0.79500
O252        O  0.61101370  0.06332269  0.52791851    -0.78300
C253        C  0.69107419  0.01783587  0.57483985     0.82800
O254        O  0.59963130  0.01776737  0.68761172    -0.79400
O255        O  0.68928079  0.09557904  0.70663379    -0.80900
O256        O  0.65185846  0.18897162  0.58725703    -0.80700
O257        O  0.60260540  0.13370050  0.54461629    -0.79300
Zn258      Zn  0.63074435  0.04121739  0.58561329     1.55700
O259        O  0.69151673  0.15967407  0.60779710    -0.80700
Cd260      Cd  0.62248632  0.14440495  0.60436705     1.59700
Cd261      Cd  0.62119190  0.07670271  0.68873311     1.59600
O262        O  0.59567921  0.17365016  0.64856476    -0.80700
O263        O  0.63871386  0.08911426  0.62838017    -1.91200
Cd264      Cd  0.67907746  0.09878358  0.63650083     1.59900
O265        O  0.59381832  0.12587168  0.70618137    -0.80600
O266        O  0.69957176  0.04943688  0.60012345    -0.79300
C267        C  0.59593011  0.99013671  0.65528965     0.83300
C268        C  0.60089260  0.10095511  0.51762150     0.82900
O269        O  0.66583834  0.01138436  0.56730718    -0.78200
C270        C  0.67766584  0.19047169  0.58892575     0.83700
O271        O  0.60673302  0.99543406  0.61599222    -0.78300
C272        C  0.58650120  0.16198118  0.68738149     0.83900
C273        C  0.67537756  0.08614651  0.74244828     0.84200
O274        O  0.65014919  0.07654811  0.74000816    -0.80800
C275        C  0.75336499  0.40139312  0.48526844     0.80500
N276        N  0.74406575  0.36536013  0.50861080    -0.77800
C277        C  0.72594446  0.33723742  0.48913547     0.82900
N278        N  0.71719634  0.34560331  0.44609430    -0.77800
C279        C  0.72618818  0.38110914  0.42210414     0.83000
N280        N  0.74446596  0.40908044  0.44175227    -0.79500
C281        C  0.69106382  0.22809797  0.56509527    -0.05200
C282        C  0.67698827  0.24800140  0.52873536    -0.32700
C283        C  0.68815287  0.28297236  0.50403060     0.36600
C284        C  0.71411959  0.29957328  0.51529116    -0.05600
C285        C  0.72830891  0.28004280  0.55198100    -0.32600
C286        C  0.71711566  0.24415724  0.57642937     0.36500
H287        H  0.65707294  0.23607514  0.51877392     0.16900
O288        O  0.67316222  0.30078744  0.46903818    -0.60100
H289        H  0.74823745  0.29224775  0.56140956     0.16900
O290        O  0.73140853  0.22608519  0.61205137    -0.60100
H291        H  0.74318351  0.20319982  0.59794489     0.43900
H292        H  0.66252069  0.32507581  0.48318398     0.43800
C293        C  0.53653849  0.88701765  0.66102757    -0.05200
C294        C  0.56151651  0.87928248  0.63945040    -0.32700
C295        C  0.58194736  0.91150904  0.64011002     0.36600
C296        C  0.57739664  0.95222074  0.66237147    -0.05600
C297        C  0.55314927  0.95836292  0.68706425    -0.32600
C298        C  0.53260610  0.92624646  0.68592548     0.36500
H299        H  0.56457554  0.84929475  0.61977545     0.16900
O300        O  0.60575246  0.90380138  0.61699308    -0.60100
H301        H  0.54927491  0.98943180  0.70438329     0.16900
O302        O  0.50815227  0.93460337  0.70681798    -0.60100
H303        H  0.49683694  0.94919359  0.68315041     0.43900
H304        H  0.61796679  0.88970140  0.63968271     0.43800
C305        C  0.32623161  0.72188350  0.89003274    -0.05200
C306        C  0.29933196  0.73443254  0.88013366    -0.32700
C307        C  0.28670399  0.76891751  0.90457498     0.36600
C308        C  0.30080486  0.79042500  0.94023459    -0.05600
C309        C  0.32733809  0.77693267  0.95054322    -0.32600
C310        C  0.34009343  0.74364491  0.92584076     0.36500
H311        H  0.28817908  0.71783262  0.85321312     0.16900
O312        O  0.26040532  0.78022835  0.89437748    -0.60100
H313        H  0.33875736  0.79286221  0.97756059     0.16900
O314        O  0.36594431  0.73168794  0.93836255    -0.60100
H315        H  0.37806363  0.75385461  0.92381292     0.43900
H316        H  0.26173286  0.80022608  0.86757066     0.43800
C317        C  0.47444580  0.76194764  0.69065244    -0.05200
C318        C  0.47372970  0.71861898  0.67345292    -0.32700
C319        C  0.46058965  0.68472989  0.69775588     0.36600
C320        C  0.44720491  0.69437225  0.73935040    -0.05600
C321        C  0.44897140  0.73766387  0.75704611    -0.32600
C322        C  0.46226040  0.77123647  0.73293093     0.36500
H323        H  0.48290938  0.71127423  0.64061813     0.16900
O324        O  0.46028732  0.64281645  0.67978354    -0.60100
H325        H  0.43894193  0.74628058  0.78881178     0.16900
O326        O  0.46182912  0.81364111  0.74968428    -0.60100
H327        H  0.44475135  0.82680942  0.73783502     0.43900
H328        H  0.47699130  0.62845670  0.69162254     0.43800
C329        C  0.56817510  0.19266758  0.71208431    -0.05200
C330        C  0.55722770  0.22949686  0.68896093    -0.32700
C331        C  0.54453304  0.26375857  0.71307164     0.36600
C332        C  0.54288105  0.26160263  0.76097889    -0.05600
C333        C  0.55171901  0.22332072  0.78364481    -0.32600
C334        C  0.56403845  0.18882762  0.75966599     0.36500
H335        H  0.55977542  0.23297053  0.65233387     0.16900
O336        O  0.53641138  0.30099949  0.69000721    -0.60100
H337        H  0.55021191  0.22100402  0.82055116     0.16900
O338        O  0.57400623  0.15346258  0.78381499    -0.60100
H339        H  0.55854287  0.13254823  0.78642990     0.43900
H340        H  0.51722412  0.29535033  0.68143820     0.43800
C341        C  0.44088561  0.45066443  0.79460926    -0.05200
C342        C  0.46018109  0.44953376  0.75895922    -0.32700
C343        C  0.48150183  0.41866431  0.75955086     0.36600
C344        C  0.48373995  0.38887294  0.79621354    -0.05600
C345        C  0.46367185  0.38800022  0.83002969    -0.32600
C346        C  0.44218952  0.41798852  0.82920813     0.36500
H347        H  0.45965463  0.47407715  0.73196989     0.16900
O348        O  0.50122428  0.42039111  0.72642193    -0.60100
H349        H  0.46522369  0.36486920  0.85826374     0.16900
O350        O  0.42343431  0.41635571  0.86391590    -0.60100
H351        H  0.40820701  0.39838455  0.85173102     0.43900
H352        H  0.49581872  0.39784567  0.70354751     0.43800
C353        C  0.30305566  0.59556410  0.57801097    -0.05200
C354        C  0.33137392  0.59284121  0.58142119    -0.32700
C355        C  0.34405501  0.58678714  0.62370656     0.36600
C356        C  0.32840136  0.58470807  0.66428958    -0.05600
C357        C  0.29984165  0.58675722  0.66063639    -0.32600
C358        C  0.28716342  0.59152171  0.61782139     0.36500
H359        H  0.34383064  0.59573223  0.55096458     0.16900
O360        O  0.37191126  0.58523739  0.62492779    -0.60100
H361        H  0.28728915  0.58520653  0.69105144     0.16900
O362        O  0.25939488  0.59487264  0.61558372    -0.60100
H363        H  0.25280381  0.56404553  0.61207024     0.43900
H364        H  0.37663117  0.55391532  0.61860351     0.43800
C365        C  0.32885616  0.89353514  0.16465744    -0.05200
C366        C  0.34343234  0.87275527  0.12948915    -0.32700
C367        C  0.33207645  0.86713582  0.08614566     0.36600
C368        C  0.30558015  0.88281178  0.07674931    -0.05600
C369        C  0.29130822  0.90514343  0.11146752    -0.32600
C370        C  0.30269542  0.91026104  0.15527956     0.36500
H371        H  0.36362379  0.85981154  0.13591749     0.16900
O372        O  0.34715135  0.84590690  0.05331072    -0.60100
H373        H  0.27102964  0.91762782  0.10501361     0.16900
O374        O  0.28814976  0.93174080  0.18855571    -0.60100
H375        H  0.29372060  0.96321363  0.18620781     0.43900
H376        H  0.35621413  0.86983625  0.03579378     0.43800
C377        C  0.43381485  0.87470905  0.47427060    -0.05200
C378        C  0.43675184  0.83065906  0.48900747    -0.32700
C379        C  0.45095071  0.82028948  0.52871109     0.36600
C380        C  0.46292363  0.85414809  0.55477083    -0.05600
C381        C  0.46027419  0.89836742  0.54016919    -0.32600
C382        C  0.44573627  0.90882850  0.50029353     0.36500
H383        H  0.42785167  0.80367510  0.46974799     0.16900
O384        O  0.45401161  0.77661906  0.54054493    -0.60100
H385        H  0.46929893  0.92491018  0.55990541     0.16900
O386        O  0.44354324  0.95223502  0.48706737    -0.60100
H387        H  0.45917137  0.95740703  0.46628739     0.43900
H388        H  0.43664114  0.76813626  0.55540504     0.43800
C389        C  0.32313386  0.76251960  0.39379414    -0.05200
C390        C  0.30266718  0.73706284  0.37332201    -0.32700
C391        C  0.29194840  0.69967568  0.39577027     0.36600
C392        C  0.30124929  0.68792165  0.44001938    -0.05600
C393        C  0.32113149  0.71470647  0.46069295    -0.32600
C394        C  0.33215727  0.75117838  0.43797189     0.36500
H395        H  0.29569816  0.74516454  0.33920490     0.16900
O396        O  0.27246945  0.67505475  0.37397301    -0.60100
H397        H  0.32864072  0.70720860  0.49462130     0.16900
O398        O  0.35148123  0.77628408  0.45975319    -0.60100
H399        H  0.36874742  0.75965438  0.45626945     0.43900
H400        H  0.28269949  0.65353228  0.35498483     0.43800
C401        C  0.58683555  0.10812615  0.47347428    -0.05200
C402        C  0.57257801  0.07365126  0.45194515    -0.32700
C403        C  0.55719095  0.08177114  0.41235905     0.36600
C404        C  0.55606141  0.12484077  0.39369948    -0.05600
C405        C  0.57117934  0.15869877  0.41440848    -0.32600
C406        C  0.58645374  0.15072425  0.45358675     0.36500
H407        H  0.57278348  0.04066222  0.46645960     0.16900
O408        O  0.54336434  0.04743952  0.39239672    -0.60100
H409        H  0.57089637  0.19200185  0.40063554     0.16900
O410        O  0.60078967  0.18518723  0.47237365    -0.60100
H411        H  0.61916252  0.18338023  0.45850987     0.43900
H412        H  0.55554229  0.03647419  0.36784371     0.43800
C413        C  0.47715777  0.09954648  0.29477051    -0.05200
C414        C  0.47612868  0.07029478  0.25766361    -0.32700
C415        C  0.45580297  0.03774314  0.25538297     0.36600
C416        C  0.43638834  0.03422247  0.29090747    -0.05600
C417        C  0.43601970  0.06682845  0.32525767    -0.32600
C418        C  0.45624083  0.09909725  0.32740712     0.36500
H419        H  0.49220913  0.07053754  0.23230849     0.16900
O420        O  0.45669489  0.00730764  0.22065521    -0.60100
H421        H  0.42097318  0.06580262  0.35232339     0.16900
O422        O  0.45654949  0.12807764  0.36350714    -0.60100
H423        H  0.44608557  0.15417796  0.35289487     0.43900
H424        H  0.44662493  0.02118777  0.19503948     0.43800
C425        C  0.71343840  0.09551765  0.87591010    -0.05200
C426        C  0.68516611  0.09918051  0.87117620    -0.32700
C427        C  0.67260446  0.09459445  0.82848265     0.36600
C428        C  0.68839692  0.08762339  0.78863478    -0.05600
C429        C  0.71678373  0.08353133  0.79347281    -0.32600
C430        C  0.72923871  0.08664857  0.83674104     0.36500
H431        H  0.67264130  0.10585851  0.90090261     0.16900
O432        O  0.64490425  0.09931890  0.82599311    -0.60100
H433        H  0.72939957  0.07803437  0.76363035     0.16900
O434        O  0.75697515  0.08354934  0.83994735    -0.60100
H435        H  0.76080022  0.05140945  0.84243702     0.43900
H436        H  0.63741175  0.06994148  0.83441366     0.43800
C437        C  0.68903142  0.39759318  0.28962336    -0.05200
C438        C  0.71644219  0.40953142  0.29585540    -0.32700
C439        C  0.72871481  0.40666784  0.33928105     0.36600
C440        C  0.71379078  0.39018991  0.37679382    -0.05600
C441        C  0.68630874  0.37925472  0.37050777    -0.32600
C442        C  0.67387682  0.38325609  0.32783743     0.36500
H443        H  0.72836774  0.42097766  0.26702050     0.16900
O444        O  0.75560272  0.41764461  0.34402525    -0.60100
H445        H  0.67430842  0.36696155  0.39889074     0.16900
O446        O  0.64727204  0.37025489  0.32334242    -0.60100
H447        H  0.63634585  0.39550994  0.33482023     0.43900
H448        H  0.75568003  0.44985370  0.35058297     0.43800
C449        C  0.58888503  0.36796189  0.97703175    -0.05200
C450        C  0.57916067  0.40390639  0.95142781    -0.32700
C451        C  0.56494571  0.39699175  0.91064147     0.36600
C452        C  0.56054905  0.35361926  0.89459172    -0.05600
C453        C  0.57119124  0.31778665  0.91917420    -0.32600
C454        C  0.58527256  0.32456971  0.95994431     0.36500
H455        H  0.58212983  0.43748980  0.96339731     0.16900
O456        O  0.55621558  0.43288830  0.88598143    -0.60100
H457        H  0.56818083  0.28419379  0.90720072     0.16900
O458        O  0.59528789  0.28840152  0.98277931    -0.60100
H459        H  0.61379278  0.28373343  0.97015057     0.43900
H460        H  0.53912365  0.44246733  0.90102797     0.43800
C461        C  0.69187290  0.25382716  0.06748758    -0.05200
C462        C  0.71999742  0.24553681  0.07003822    -0.32700
C463        C  0.73181876  0.21024261  0.04545917     0.36600
C464        C  0.71560557  0.18336006  0.01691358    -0.05600
C465        C  0.68773469  0.19181113  0.01422358    -0.32600
C466        C  0.67581158  0.22597364  0.03922063     0.36500
H467        H  0.73285116  0.26644800  0.09092807     0.16900
O468        O  0.75937155  0.20376644  0.04774311    -0.60100
H469        H  0.67488765  0.17149118  0.99264920     0.16900
O470        O  0.64841171  0.23278510  0.03394490    -0.60100
H471        H  0.63956101  0.21167208  0.05525849     0.43900
H472        H  0.76221302  0.18485531  0.07503906     0.43800
C473        C  0.56919774  0.29021762  0.21727020    -0.05200
C474        C  0.55471830  0.25759978  0.19294680    -0.32700
C475        C  0.54058314  0.22406139  0.21601574     0.36600
C476        C  0.54121258  0.22251122  0.26404538    -0.05600
C477        C  0.55410884  0.25677548  0.28820340    -0.32600
C478        C  0.56792149  0.29046171  0.26533571     0.36500
H479        H  0.55526048  0.25703293  0.15591048     0.16900
O480        O  0.52842347  0.19097325  0.19131293    -0.60100
H481        H  0.55459908  0.25633721  0.32525421     0.16900
O482        O  0.58219464  0.32091202  0.29049048    -0.60100
H483        H  0.56890753  0.34454193  0.29783993     0.43900
H484        H  0.50980860  0.20190280  0.18486812     0.43800
C485        C  0.45428528  0.61616774  0.06464507    -0.05200
C486        C  0.43883660  0.64995552  0.04442907    -0.32700
C487        C  0.42579178  0.64336620  0.00277862     0.36600
C488        C  0.42791564  0.60237508  0.98014726    -0.05600
C489        C  0.44212409  0.56763917  0.00120772    -0.32600
C490        C  0.45531907  0.57428878  0.04318582     0.36500
H491        H  0.43733762  0.68227073  0.06026933     0.16900
O492        O  0.41097607  0.67745811  0.98442876    -0.60100
H493        H  0.44356654  0.53568024  0.98458451     0.16900
O494        O  0.46932326  0.53981258  0.06253652    -0.60100
H495        H  0.45616640  0.52536119  0.08348085     0.43900
H496        H  0.39209440  0.67247237  0.99520842     0.43800
C497        C  0.47042355  0.71554558  0.19319895    -0.05200
C498        C  0.47150960  0.71667440  0.24106245    -0.32700
C499        C  0.45926385  0.75142823  0.26527363     0.36600
C500        C  0.44583842  0.78582613  0.24148453    -0.05600
C501        C  0.44690460  0.78648033  0.19361861    -0.32600
C502        C  0.45895168  0.75174964  0.16951295     0.36500
H503        H  0.48049151  0.68940870  0.25978521     0.16900
O504        O  0.45959224  0.75045971  0.31215856    -0.60100
H505        H  0.43700245  0.81271308  0.17462736     0.16900
O506        O  0.45836857  0.75269331  0.12262569    -0.60100
H507        H  0.47653970  0.76369908  0.11329704     0.43900
H508        H  0.47551568  0.76863899  0.32106244     0.43800
C509        C  0.53317669  0.59074129  0.16247614    -0.05200
C510        C  0.55399183  0.59453370  0.13002240    -0.32700
C511        C  0.57559362  0.56448955  0.12936778     0.36600
C512        C  0.57629895  0.52916914  0.16099369    -0.05600
C513        C  0.55645964  0.52763095  0.19577275    -0.32600
C514        C  0.53497022  0.55817651  0.19659754     0.36500
H515        H  0.55276327  0.61962752  0.10360301     0.16900
O516        O  0.59512221  0.56873998  0.09615239    -0.60100
H517        H  0.55657367  0.50104731  0.22063490     0.16900
O518        O  0.51458576  0.55341987  0.22824335    -0.60100
H519        H  0.51998327  0.57254434  0.25423378     0.43900
H520        H  0.60981161  0.58640139  0.11049867     0.43800
C521        C  0.30556428  0.48856929  0.90172156    -0.05200
C522        C  0.31090354  0.44321434  0.90638213    -0.32700
C523        C  0.29290623  0.41571810  0.93005898     0.36600
C524        C  0.26943392  0.43359052  0.95055570    -0.05600
C525        C  0.26428342  0.47910551  0.94680658    -0.32600
C526        C  0.28203879  0.50654839  0.92214514     0.36500
H527        H  0.32896486  0.42892105  0.89111011     0.16900
O528        O  0.29839427  0.37128552  0.93289380    -0.60100
H529        H  0.24612531  0.49316388  0.96197093     0.16900
O530        O  0.27637136  0.55086717  0.91857086    -0.60100
H531        H  0.28431203  0.56448906  0.94636298     0.43900
H532        H  0.30979939  0.36788798  0.96061115     0.43800
C533        C  0.18993164  0.22779274  0.89516582    -0.05200
C534        C  0.21354390  0.24841573  0.87878531    -0.32700
C535        C  0.22475777  0.28469708  0.90209775     0.36600
C536        C  0.21233115  0.30052746  0.94259966    -0.05600
C537        C  0.18917804  0.27860657  0.95934157    -0.32600
C538        C  0.17808324  0.24270659  0.93618307     0.36500
H539        H  0.22297804  0.23695710  0.84745802     0.16900
O540        O  0.24760570  0.30450394  0.88464130    -0.60100
H541        H  0.17924693  0.28946871  0.99045321     0.16900
O542        O  0.15559621  0.22217112  0.95420348    -0.60100
H543        H  0.16284787  0.19814711  0.97382608     0.43900
H544        H  0.26307248  0.28902544  0.89935774     0.43800
C545        C  0.24565988  0.92590936  0.94774115    -0.05200
C546        C  0.22261204  0.91000847  0.92479638    -0.32700
C547        C  0.20490834  0.93908864  0.90244870     0.36600
C548        C  0.21037775  0.98490528  0.90197328    -0.05600
C549        C  0.23389279  0.00069180  0.92375971    -0.32600
C550        C  0.25129864  0.97162806  0.94702376     0.36500
H551        H  0.21817395  0.87487004  0.92455606     0.16900
O552        O  0.18243492  0.92229819  0.88078981    -0.60100
H553        H  0.23851623  0.03575838  0.92349908     0.16900
O554        O  0.27438773  0.98795385  0.96714747    -0.60100
H555        H  0.26858963  0.99798390  0.99793387     0.43900
H556        H  0.18835998  0.91660524  0.84890615     0.43800
C557        C  0.03938918  0.89016470  0.78598876    -0.05200
C558        C  0.06412608  0.88274501  0.80825963    -0.32700
C559        C  0.08486703  0.91425030  0.80635457     0.36600
C560        C  0.08086498  0.95419990  0.78229477    -0.05600
C561        C  0.05708863  0.95956149  0.75623010    -0.32600
C562        C  0.03629536  0.92776608  0.75816208     0.36500
H563        H  0.06665219  0.85384790  0.82982041     0.16900
O564        O  0.10822093  0.90706268  0.83084824    -0.60100
H565        H  0.05365141  0.98997878  0.73747775     0.16900
O566        O  0.01211799  0.93572178  0.73636853    -0.60100
H567        H  0.01452100  0.92351316  0.70516350     0.43900
H568        H  0.12139414  0.89486877  0.80846590     0.43800
C569        C  0.74775151  0.93015534  0.50854412    -0.05200
C570        C  0.72644807  0.91324249  0.53546705    -0.32700
C571        C  0.70785004  0.94152187  0.55690804     0.36600
C572        C  0.71092737  0.98766965  0.55325797    -0.05600
C573        C  0.73256248  0.00482221  0.52737553    -0.32600
C574        C  0.75060737  0.97644850  0.50435978     0.36500
H575        H  0.72383687  0.87781058  0.53922024     0.16900
O576        O  0.68720930  0.92376125  0.58263413    -0.60100
H577        H  0.73508440  0.04031479  0.52411423     0.19300
O578        O  0.77146467  0.99430031  0.47924813    -0.60100
H579        H  0.76336664  0.00164103  0.44914712     0.43900
H580        H  0.67295605  0.91529338  0.56032496     0.43800
C581        C  0.82206466  0.72014237  0.56297454    -0.05200
C582        C  0.79713522  0.73853024  0.57659583    -0.32700
C583        C  0.78533510  0.77326354  0.55126607     0.36600
C584        C  0.79839513  0.78947542  0.51142938    -0.05600
C585        C  0.82221050  0.76846773  0.49644494    -0.32600
C586        C  0.83402432  0.73448171  0.52171115     0.36500
H587        H  0.78727642  0.72702096  0.60753658     0.16900
O588        O  0.76093066  0.79052749  0.56532518    -0.60100
H589        H  0.83245622  0.77928983  0.46560200     0.16900
O590        O  0.85715598  0.71468309  0.50514274    -0.60100
H591        H  0.87217259  0.73542896  0.51239241     0.43900
H592        H  0.76548720  0.81130711  0.59041491     0.43800
C593        C  0.94846657  0.69723676  0.71895919    -0.05200
C594        C  0.94833715  0.69665262  0.76680998    -0.32700
C595        C  0.96197472  0.72924468  0.79167958     0.36600
C596        C  0.97659929  0.76291005  0.76865910    -0.05600
C597        C  0.97864553  0.76116081  0.72080324    -0.32600
C598        C  0.96464945  0.72872002  0.69594127     0.36500
H599        H  0.93639457  0.67224682  0.78513632     0.16900
O600        O  0.96063026  0.72800959  0.83855247    -0.60100
H601        H  0.98999695  0.78622534  0.70240982     0.16900
O602        O  0.96634392  0.72882109  0.64913363    -0.60100
H603        H  0.98189745  0.70917243  0.64179917     0.43900
H604        H  0.94224692  0.73917371  0.84645189     0.43800
C605        C  0.77198058  0.43305128  0.50815558    -0.05200
C606        C  0.79208482  0.45517021  0.48278270    -0.32700
C607        C  0.81060655  0.48367794  0.50432424     0.36600
C608        C  0.80880820  0.49130697  0.55179914    -0.05600
C609        C  0.78798311  0.47076242  0.57677492    -0.32600
C610        C  0.76989382  0.44148194  0.55552961     0.36500
H611        H  0.79378692  0.44972524  0.44627363     0.16900
O612        O  0.82972061  0.50527129  0.47841138    -0.60100
H613        H  0.78603126  0.47673390  0.61316728     0.16900
O614        O  0.74959465  0.42257052  0.58113856    -0.60100
H615        H  0.75828157  0.39729276  0.59708794     0.43900
H616        H  0.84467131  0.48363407  0.47418941     0.43800
C617        C  0.04300391  0.26322448  0.69087744    -0.05200
C618        C  0.05568583  0.22854258  0.66698918    -0.32700
C619        C  0.06953249  0.19495469  0.69004357     0.36600
C620        C  0.07135033  0.19579759  0.73815957    -0.05600
C621        C  0.05721457  0.22907669  0.76222565    -0.32600
C622        C  0.04307792  0.26253159  0.73897348     0.36500
H623        H  0.05563197  0.22814871  0.62992945     0.16900
O624        O  0.08273268  0.16327715  0.66482575    -0.60100
H625        H  0.05789965  0.23016310  0.79922927     0.16900
O626        O  0.03070207  0.29551209  0.76358906    -0.60100
H627        H  0.04457704  0.31916572  0.76648365     0.43900
H628        H  0.06898735  0.13983455  0.65946103     0.43800
C629        C  0.97932298  0.38805872  0.66526525    -0.05200
C630        C  0.95521477  0.38191730  0.64066095    -0.32700
C631        C  0.93493833  0.41432079  0.64104418     0.36600
C632        C  0.93888557  0.45380294  0.66582699    -0.05600
C633        C  0.96205619  0.45803981  0.69364311    -0.32600
C634        C  0.98239679  0.42563391  0.69300018     0.36500
H635        H  0.95285359  0.35319213  0.61882653     0.16900
O636        O  0.91203310  0.40811987  0.61513703    -0.60100
H637        H  0.96544091  0.48803820  0.71311859     0.16900
O638        O  0.00601470  0.43245266  0.71690206    -0.60100
H639        H  0.01823944  0.44835319  0.69546935     0.43900
H640        H  0.89878707  0.39371186  0.63595702     0.43800
C641        C  0.30737719  0.99699146  0.40379616    -0.05200
C642        C  0.28649168  0.01876862  0.38014360    -0.32700
C643        C  0.26947892  0.04896356  0.40277318     0.36600
C644        C  0.27298054  0.05725285  0.44997981    -0.05600
C645        C  0.29329740  0.03422754  0.47374339    -0.32600
C646        C  0.31060283  0.00483395  0.45097572     0.36500
H647        H  0.28373084  0.01308198  0.34386386     0.16900
O648        O  0.24944066  0.06993260  0.37842082    -0.60100
H649        H  0.29619967  0.03969276  0.51002519     0.16900
O650        O  0.33015168  0.98281445  0.47547951    -0.60100
H651        H  0.34547638  0.00398377  0.47824843     0.43900
H652        H  0.23298630  0.05139310  0.38260206     0.43800
C653        C  0.22364205  0.10213309  0.58876547    -0.05200
C654        C  0.23322480  0.12606519  0.62650481    -0.32700
C655        C  0.22088091  0.12125601  0.66953088     0.36600
C656        C  0.19827376  0.09275590  0.67480534    -0.05600
C657        C  0.18946321  0.06787198  0.63704117    -0.32600
C658        C  0.20213916  0.07210540  0.59449732     0.36500
H659        H  0.24974498  0.14945091  0.62228908     0.16900
O660        O  0.23034123  0.14594985  0.70552063    -0.60100
H661        H  0.17228563  0.04562473  0.64021680     0.16900
O662        O  0.19223252  0.04879787  0.55789843    -0.60100
H663        H  0.20282161  0.02087579  0.55743542     0.43900
H664        H  0.21987091  0.17398180  0.70443080     0.43800
C665        C  0.20798321  0.39316446  0.07907672    -0.05200
C666        C  0.18159979  0.37714108  0.08715263    -0.32700
C667        C  0.17007294  0.37850214  0.13068241     0.36600
C668        C  0.18499400  0.39563511  0.16771664    -0.05600
C669        C  0.21127672  0.41230745  0.15992347    -0.32600
C670        C  0.22266251  0.41178090  0.11575582     0.36500
H671        H  0.16987899  0.36263290  0.05960562     0.16900
O672        O  0.14475815  0.36041134  0.13720328    -0.60100
H673        H  0.22293133  0.42586517  0.18803988     0.16900
O674        O  0.24859939  0.42722796  0.10943816    -0.60100
H675        H  0.24650075  0.45929290  0.10307587     0.43900
H676        H  0.13175046  0.38375194  0.12775982     0.43800
C677        C  0.08067841  0.37199506  0.47439583    -0.05200
C678        C  0.06734984  0.40714603  0.49634895    -0.32700
C679        C  0.05298883  0.39992138  0.53711858     0.36600
C680        C  0.05207270  0.35708447  0.55641299    -0.05600
C681        C  0.06556986  0.32227581  0.53433504    -0.32600
C682        C  0.07977944  0.32936671  0.49395196     0.36500
H683        H  0.06795408  0.44011989  0.48179662     0.16900
O684        O  0.04030844  0.43495845  0.55796004    -0.60100
H685        H  0.06515701  0.28908779  0.54838543     0.16900
O686        O  0.09313257  0.29428836  0.47430499    -0.60100
H687        H  0.11197044  0.29582342  0.48625796     0.43900
H688        H  0.05410829  0.44767663  0.57887406     0.43800
C689        C  0.21630841  0.19140081  0.44999409    -0.05200
C690        C  0.23103488  0.21466622  0.41654037    -0.32700
C691        C  0.21887043  0.24895614  0.39137569     0.36600
C692        C  0.19123879  0.25947277  0.39838083    -0.05600
C693        C  0.17663381  0.23595708  0.43202854    -0.32600
C694        C  0.18890310  0.20249904  0.45773113     0.36500
H695        H  0.25214604  0.20648742  0.41015990     0.16900
O696        O  0.23399594  0.27101129  0.35924095    -0.60100
H697        H  0.15547301  0.24354346  0.43874824     0.16900
O698        O  0.17366246  0.18019292  0.48962219    -0.60100
H699        H  0.16563458  0.15478173  0.47294238     0.43900
H700        H  0.24377093  0.29438155  0.37644975     0.43800
C701        C  0.24526098  0.55178659  0.44792683    -0.05200
C702        C  0.24797980  0.54273686  0.40097927    -0.32700
C703        C  0.23063846  0.51257915  0.37915831     0.36600
C704        C  0.20943440  0.49229610  0.40386870    -0.05600
C705        C  0.20666962  0.50140797  0.45071867    -0.32600
C706        C  0.22469973  0.53008922  0.47295998     0.36500
H707        H  0.26381655  0.55873495  0.38118426     0.16900
O708        O  0.23380429  0.50476414  0.33326399    -0.60100
H709        H  0.19056862  0.48588464  0.47031807     0.16900
O710        O  0.22126966  0.53812895  0.51875811    -0.60100
H711        H  0.23049372  0.51322000  0.53446912     0.43900
H712        H  0.24790925  0.48139127  0.33117839     0.43800
C713        C  0.96823436  0.64002846  0.40894625    -0.05200
C714        C  0.96923214  0.59731807  0.42817318    -0.32700
C715        C  0.95319834  0.58627249  0.46613994     0.36600
C716        C  0.93598784  0.61824779  0.48575283    -0.05600
C717        C  0.93501971  0.66083863  0.46660905    -0.32600
C718        C  0.95071568  0.67180975  0.42853870     0.36500
H719        H  0.98228904  0.57215963  0.41353610     0.16900
O720        O  0.95486899  0.54445054  0.48414999    -0.60100
H721        H  0.92190624  0.68599004  0.48119628     0.16900
O722        O  0.94931441  0.71418900  0.41179592    -0.60100
H723        H  0.93268154  0.71492517  0.39265949     0.43900
H724        H  0.96957172  0.54601215  0.50726897     0.43800
C725        C  0.04156733  0.60226807  0.30282462    -0.05200
C726        C  0.06553758  0.60426019  0.32837277    -0.32700
C727        C  0.08484242  0.57055288  0.32520998     0.36600
C728        C  0.07984296  0.53334008  0.29723804    -0.05600
C729        C  0.05679339  0.53326227  0.26880643    -0.32600
C730        C  0.03770728  0.56764428  0.27141104     0.36500
H731        H  0.06870664  0.63104788  0.35243160     0.16900
O732        O  0.10785711  0.57323388  0.35151254    -0.60100
H733        H  0.05261327  0.50517784  0.24688734     0.16900
O734        O  0.01420731  0.56499864  0.24636400    -0.60100
H735        H  0.01722239  0.58457826  0.21961575     0.43900
H736        H  0.12226450  0.58393678  0.33049092     0.43800
C737        C  0.74490889  0.55492535  0.00751666    -0.05200
C738        C  0.75128615  0.53863103  0.05111257    -0.32700
C739        C  0.73400045  0.50876174  0.07335484     0.36600
C740        C  0.70935912  0.49597099  0.05265653    -0.05600
C741        C  0.70281369  0.51303523  0.00923201    -0.32600
C742        C  0.72059853  0.54172749  0.98636927     0.36500
H743        H  0.76999145  0.54861661  0.06772961     0.16900
O744        O  0.74091374  0.49364595  0.11600831    -0.60100
H745        H  0.68397940  0.50368659  0.99265563     0.16900
O746        O  0.71351392  0.55817104  0.94431271    -0.60100
H747        H  0.71953979  0.53544935  0.92203794     0.43900
H748        H  0.75392634  0.46913380  0.11053117     0.43800
C749        C  0.80538156  0.59352250  0.87881707    -0.05200
C750        C  0.83351858  0.59954448  0.87423400    -0.32700
C751        C  0.84623375  0.59563195  0.83178703     0.36600
C752        C  0.83066649  0.58641661  0.79236560    -0.05600
C753        C  0.80254317  0.57917579  0.79714741    -0.32600
C754        C  0.78994153  0.58204198  0.84015093     0.36500
H755        H  0.84573641  0.60821114  0.90373697     0.16900
O756        O  0.87363678  0.60376874  0.82895134    -0.60100
H757        H  0.79023677  0.57177166  0.76742278     0.16900
O758        O  0.76234668  0.57653669  0.84344586    -0.60100
H759        H  0.75963619  0.54426096  0.84766245     0.43900
H760        H  0.88250581  0.57552682  0.83767203     0.43800
C761        C  0.80366533  0.88420060  0.37536516    -0.05200
C762        C  0.79923669  0.85182866  0.34177704    -0.32700
C763        C  0.81060165  0.85593536  0.29797610     0.36600
C764        C  0.82761130  0.89213057  0.28746288    -0.05600
C765        C  0.83208289  0.92456610  0.32117469    -0.32600
C766        C  0.81987618  0.92118000  0.36456296     0.36500
H767        H  0.78703562  0.82294590  0.34969235     0.16900
O768        O  0.80637834  0.82285495  0.26667126    -0.60100
H769        H  0.84520829  0.95250812  0.31392236     0.16900
O770        O  0.82531430  0.95269366  0.39702134    -0.60100
H771        H  0.81104009  0.97551758  0.39294416     0.43900
H772        H  0.78877693  0.83010070  0.25196457     0.43800
C773        C  0.97042198  0.85876351  0.90200126    -0.05200
C774        C  0.96436763  0.82303698  0.93069610    -0.32700
C775        C  0.94998843  0.82917834  0.97122501     0.36600
C776        C  0.94114769  0.87198330  0.98403386    -0.05600
C777        C  0.94788736  0.90811006  0.95574421    -0.32600
C778        C  0.96249407  0.90172286  0.91499247     0.36500
H779        H  0.97051404  0.78979853  0.92130542     0.16900
O780        O  0.94429090  0.79267648  0.99746617    -0.60100
H781        H  0.94146631  0.94126646  0.96479543     0.16900
O782        O  0.96801453  0.93735179  0.88742621    -0.60100
H783        H  0.95262131  0.93882049  0.86560965     0.43900
H784        H  0.92699810  0.78076585  0.98513460     0.43800
C785        C  0.80405364  0.68634070  0.01505642    -0.05200
C786        C  0.82652690  0.70863323  0.99620644    -0.32700
C787        C  0.83870653  0.74390114  0.01895724     0.36600
C788        C  0.82830749  0.75835948  0.06122848    -0.05600
C789        C  0.80535729  0.73743056  0.07972207    -0.32600
C790        C  0.79339769  0.70125954  0.05728850     0.36500
H791        H  0.83512116  0.69854358  0.96372544     0.16900
O792        O  0.86030304  0.76509012  0.99874767    -0.60100
H793        H  0.79713782  0.74835916  0.11219706     0.16900
O794        O  0.77120921  0.68126183  0.07678899    -0.60100
H795        H  0.77878258  0.65933506  0.09857355     0.43900
H796        H  0.87629837  0.74601863  0.00489286     0.43800
C797        C  0.94932720  0.78956052  0.22016159    -0.05200
C798        C  0.95819692  0.74976907  0.19981403    -0.32700
C799        C  0.97354580  0.71897320  0.22451821     0.36600
C800        C  0.98008556  0.72747814  0.27039663    -0.05600
C801        C  0.97257118  0.76798783  0.29008057    -0.32600
C802        C  0.95742834  0.79898670  0.26541966     0.36500
H803        H  0.95245193  0.74163790  0.16507040     0.16900
O804        O  0.97980294  0.67902287  0.20487759    -0.60100
H805        H  0.97752265  0.77486460  0.32548110     0.16900
O806        O  0.94990448  0.83758687  0.28661582    -0.60100
H807        H  0.93273980  0.83051396  0.30287012     0.43900
H808        H  0.99777471  0.68349104  0.19018218     0.43800
C809        C  0.80937067  0.99145129  0.04910863    -0.05200
C810        C  0.80933171  0.99505923  0.00121702    -0.32700
C811        C  0.79122761  0.02375066  0.97883887     0.36600
C812        C  0.77351527  0.05087119  0.00452380    -0.05600
C813        C  0.77382107  0.04723127  0.05254779    -0.32600
C814        C  0.79120303  0.01743194  0.07469880     0.36500
H815        H  0.82323109  0.97521577  0.98104504     0.16900
O816        O  0.79179240  0.02614708  0.93202343    -0.60100
H817        H  0.76034347  0.06734721  0.07321183     0.16900
O818        O  0.79123989  0.01556662  0.12156027    -0.60100
H819        H  0.77676794  0.99406464  0.12959788     0.43900
H820        H  0.77998545  0.00160001  0.92142066     0.43800
C821        C  0.05965486  0.12336145  0.05799919    -0.05200
C822        C  0.05374614  0.08467178  0.03289747    -0.32700
C823        C  0.06832508  0.07417649  0.99319344     0.36600
C824        C  0.08884387  0.10279661  0.97784610    -0.05600
C825        C  0.09566317  0.14008969  0.00376152    -0.32600
C826        C  0.08141844  0.15052001  0.04348642     0.36500
H827        H  0.03735979  0.06293609  0.04331889     0.16900
O828        O  0.06104770  0.03783127  0.96793421    -0.60100
H829        H  0.11176397  0.16204133  0.99244265     0.16900
O830        O  0.08872805  0.18787971  0.06709209    -0.60100
H831        H  0.08059682  0.21280482  0.04978284     0.43900
H832        H  0.07097197  0.01269957  0.98195583     0.43800
C833        C  0.06868328  0.28550497  0.24029439    -0.05200
C834        C  0.06384746  0.29219788  0.19350264    -0.32700
C835        C  0.05068919  0.25982605  0.16744735     0.36600
C836        C  0.04160676  0.22050878  0.18832927    -0.05600
C837        C  0.04424936  0.21539121  0.23564964    -0.32600
C838        C  0.05773477  0.24743947  0.26167869     0.36500
H839        H  0.07151096  0.32149579  0.17643460     0.16900
O840        O  0.04689605  0.26664297  0.12147580    -0.60100
H841        H  0.03728861  0.18529225  0.25208919     0.16900
O842        O  0.06103310  0.24024480  0.30764027    -0.60100
H843        H  0.04424262  0.25188818  0.32206398     0.43900
H844        H  0.06532967  0.26605121  0.10775994     0.43800
C845        C  0.97949609  0.09682187  0.15279537    -0.05200
C846        C  0.97688052  0.07098314  0.19235110    -0.32700
C847        C  0.95659361  0.03839221  0.19525043     0.36600
C848        C  0.93862470  0.03172983  0.15813982    -0.05600
C849        C  0.94001624  0.06073207  0.12055576    -0.32600
C850        C  0.96034561  0.09262630  0.11755096     0.36500
H851        H  0.99169507  0.07394204  0.21957405     0.16900
O852        O  0.95601680  0.01117012  0.23275350    -0.60100
H853        H  0.92626395  0.05715020  0.09188400     0.16900
O854        O  0.96242126  0.11765822  0.07854212    -0.60100
H855        H  0.95368887  0.14630192  0.08617252     0.43900
H856        H  0.94371508  0.02603934  0.25479837     0.43800
loop_ 
_geom_bond_atom_site_label_1 
_geom_bond_atom_site_label_2 
_geom_bond_distance 
_geom_bond_site_symmetry_2 
_ccdc_geom_bond_type 
C1            N2   1.357       .  A
C1            N6   1.360       .  A
C1          C845   1.465   1_455  S
N2            C3   1.354       .  A
C3            N4   1.354       .  A
C3          C821   1.484       .  S
N4            C5   1.355       .  A
C5            N6   1.361       .  A
C5          C836   1.470       .  S
O7           C23   1.274       .  A
O7          Zn13   2.038       .  S
C8          C809   1.479       .  S
C8           O24   1.275       .  A
C8           O21   1.278       .  A
O9           C22   1.276       .  A
O9          Cd16   2.081       .  S
O10          C28   1.279       .  A
O10         Cd19   2.093       .  S
O11          C25   1.271       .  A
O11         Cd15   2.036       .  S
O12          C23   1.269       .  A
O12         Cd15   2.037       .  S
Zn13         O24   2.020       .  S
Zn13         O26   1.994       .  S
Zn13         O18   1.940       .  S
O14          C25   1.277       .  A
O14         Cd19   2.091       .  S
Cd15         O17   2.045       .  S
Cd15         O18   1.976       .  S
Cd16         O20   2.086       .  S
Cd16         O29   2.089       .  S
Cd16         O18   2.003       .  S
O17          C27   1.272       .  A
O18         Cd19   2.001       .  S
Cd19         O21   2.091       .  S
O20          C27   1.277       .  A
C22         C848   1.485   1_565  S
C22          O26   1.274       .  A
C23         C776   1.486   1_554  S
C25         C788   1.472       .  S
C27         C797   1.486       .  S
C28         C764   1.488       .  S
C28          O29   1.278       .  A
C30          N31   1.360   1_556  A
C30          N35   1.362       .  A
C30         C737   1.471   1_556  S
N31          C32   1.357   1_554  A
C32          N33   1.354       .  A
C32         C785   1.486   1_556  S
N33          C34   1.353       .  A
C34          N35   1.359       .  A
C34         C749   1.475       .  S
C36          N37   1.360       .  A
C36          N41   1.358       .  A
C36         C725   1.464       .  S
N37          C38   1.360   1_455  A
C38          N39   1.354       .  A
C38         C800   1.470       .  S
N39          C40   1.353       .  A
C40          N41   1.356   1_655  A
C40         C713   1.482       .  S
O42          C58   1.274       .  A
O42         Zn48   2.025       .  S
C43         C704   1.479       .  S
C43          O59   1.275       .  A
C43          O56   1.276       .  A
O44          C57   1.276       .  A
O44         Cd51   2.080       .  S
O45          C63   1.280       .  A
O45         Cd54   2.095       .  S
O46          C60   1.272       .  A
O46         Cd50   2.040       .  S
O47          C58   1.268       .  A
O47         Cd50   2.022       .  S
Zn48         O59   2.015       .  S
Zn48         O61   2.001       .  S
Zn48         O53   1.934       .  S
O49          C60   1.280       .  A
O49         Cd54   2.111       .  S
Cd50         O52   2.046       .  S
Cd50         O53   1.971       .  S
Cd51         O55   2.084       .  S
Cd51         O64   2.054       .  S
Cd51         O53   1.995       .  S
O52          C62   1.271       .  A
O53         Cd54   2.008       .  S
Cd54         O56   2.082       .  S
O55          C62   1.276       .  A
C57         C728   1.480       .  S
C57          O61   1.273       .  A
C58         C677   1.470       .  S
C60         C692   1.489       .  S
C62         C833   1.482       .  S
C63         C668   1.478       .  S
C63          O64   1.275       .  A
C65          N66   1.362       .  A
C65          N70   1.360       .  A
C65         C644   1.483       .  S
N66          C67   1.358       .  A
C67          N68   1.356       .  A
C67         C653   1.469       .  S
N68          C69   1.358       .  A
C69          N70   1.358       .  A
C69         C689   1.479       .  S
C71          N72   1.362       .  A
C71          N76   1.357       .  A
C71         C629   1.462   1_455  S
N72          C73   1.362       .  A
C73          N74   1.354       .  A
C73         C617   1.479       .  S
N74          C75   1.353       .  A
C75          N76   1.352       .  A
C75         C680   1.475       .  S
O77          C93   1.276       .  A
O77         Zn83   2.028       .  S
C78         C716   1.476       .  S
C78          O94   1.276       .  A
C78          O91   1.269       .  A
O79          C92   1.274       .  A
O79         Cd86   2.061       .  S
O80          C98   1.272       .  A
O80         Cd89   2.055       .  S
O81          C95   1.278       .  A
O81         Cd85   2.104       .  S
O82          C93   1.277       .  A
O82         Cd85   2.076       .  S
Zn83         O94   2.043       .  S
Zn83         O96   2.026       .  S
Zn83         O88   1.945       .  S
O84          C95   1.271       .  A
O84         Cd89   2.034       .  S
Cd85         O87   2.089       .  S
Cd85         O88   2.011       .  S
Cd86         O90   2.053       .  S
Cd86         O99   2.073       .  S
Cd86         O88   1.991       .  S
O87          C97   1.279       .  A
O88         Cd89   1.975       .  S
Cd89         O91   2.026       .  S
O90          C97   1.274       .  A
C92         C632   1.478       .  S
C92          O96   1.277       .  A
C93         C608   1.480       .  S
C95         C581   1.480       .  S
C97         C752   1.482       .  S
C98         C593   1.476       .  S
C98          O99   1.274       .  A
C100        N101   1.365       .  A
C100        N105   1.361       .  A
C100        C569   1.484       .  S
N101        C102   1.362       .  A
C102        N103   1.357       .  A
C102        C761   1.482       .  S
N103        C104   1.359       .  A
C104        N105   1.357       .  A
C104        C584   1.489       .  S
C106        N107   1.360       .  A
C106        N111   1.363       .  A
C106        C557   1.466       .  S
N107        C108   1.354   1_455  A
C108        N109   1.351       .  A
C108        C773   1.472       .  S
N109        C110   1.354       .  A
C110        N111   1.363   1_655  A
C110        C596   1.483       .  S
O112        C128   1.274       .  A
O112       Zn118   2.011       .  S
C113        C824   1.464       .  S
C113        O129   1.274       .  A
C113        O126   1.269       .  A
O114        C127   1.276   1_545  A
O114       Cd121   2.090       .  S
O115        C133   1.272       .  A
O115       Cd124   2.056       .  S
O116        C130   1.275       .  A
O116       Cd120   2.084       .  S
O117        C128   1.276       .  A
O117       Cd120   2.084       .  S
Zn118       O129   2.028       .  S
Zn118       O131   1.999   1_545  S
Zn118       O123   1.940       .  S
O119        C130   1.270       .  A
O119       Cd124   2.037       .  S
Cd120       O122   2.074       .  S
Cd120       O123   2.010       .  S
Cd121       O125   2.074       .  S
Cd121       O134   2.084       .  S
Cd121       O123   1.999       .  S
O122        C132   1.277       .  A
O123       Cd124   1.982       .  S
Cd124       O126   2.025       .  S
O125        C132   1.279       .  A
C127        C560   1.479       .  S
C127        O131   1.273       .  A
C128        C548   1.480   1_545  S
C130        C533   1.471       .  S
C132        C656   1.483       .  S
C133        C620   1.487       .  S
C133        O134   1.276       .  A
C135        N136   1.358       .  A
C135        N140   1.365   1_556  A
C135        C524   1.472       .  S
N136        C137   1.353       .  A
C137        N138   1.353   1_556  A
C137        C536   1.484       .  S
N138        C139   1.355       .  A
C139        N140   1.363       .  A
C139        C665   1.483       .  S
C141        N142   1.363       .  A
C141        N146   1.358       .  A
C141        C509   1.468       .  S
N142        C143   1.363       .  A
C143        N144   1.355       .  A
C143        C497   1.478       .  S
N144        C145   1.353       .  A
C145        N146   1.354       .  A
C145        C485   1.481       .  S
O147        C163   1.274       .  A
O147       Zn153   2.006       .  S
C148        C449   1.478   1_554  S
C148        O164   1.275       .  A
C148        O161   1.268       .  A
O149        C162   1.275       .  A
O149       Cd156   2.077       .  S
O150        C168   1.269       .  A
O150       Cd159   2.037       .  S
O151        C165   1.282       .  A
O151       Cd155   2.132       .  S
O152        C163   1.278       .  A
O152       Cd155   2.086       .  S
Zn153       O164   2.031       .  S
Zn153       O166   2.025       .  S
Zn153       O158   1.942       .  S
O154        C165   1.268       .  A
O154       Cd159   2.023       .  S
Cd155       O157   2.108       .  S
Cd155       O158   2.018       .  S
Cd156       O160   2.060       .  S
Cd156       O169   2.078       .  S
Cd156       O158   1.996       .  S
O157        C167   1.282       .  A
O158       Cd159   1.976       .  S
Cd159       O161   2.027       .  S
O160        C167   1.276       .  A
C162        C512   1.487       .  S
C162        O166   1.276       .  A
C163        C740   1.481       .  S
C165        C461   1.496       .  S
C167        C437   1.486       .  S
C168        C473   1.477       .  S
C168        O169   1.275       .  A
C170        N171   1.366       .  A
C170        N175   1.362   1_556  A
C170        C812   1.490   1_556  S
N171        C172   1.363       .  A
C172        N173   1.359       .  A
C172        C425   1.486       .  S
N173        C174   1.359       .  A
C174        N175   1.357   1_556  A
C174        C464   1.483   1_556  S
C176        N177   1.361       .  A
C176        N181   1.362       .  A
C176        C413   1.466       .  S
N177        C178   1.355       .  A
C178        N179   1.351       .  A
C178        C404   1.481       .  S
N179        C180   1.354       .  A
C180        N181   1.361       .  A
C180        C476   1.474       .  S
O182        C198   1.274       .  A
O182       Zn188   2.005       .  S
C183        C377   1.481       .  S
C183        O199   1.275       .  A
C183        O196   1.268       .  A
O184        C197   1.277       .  A
O184       Cd191   2.084       .  S
O185        C203   1.270       .  A
O185       Cd194   2.041       .  S
O186        C200   1.280       .  A
O186       Cd190   2.119       .  S
O187        C198   1.278       .  A
O187       Cd190   2.094       .  S
Zn188       O199   2.048       .  S
Zn188       O201   2.001       .  S
Zn188       O193   1.942       .  S
O189        C200   1.270       .  A
O189       Cd194   2.030       .  S
Cd190       O192   2.099       .  S
Cd190       O193   2.018       .  S
Cd191       O195   2.067       .  S
Cd191       O204   2.088       .  S
Cd191       O193   2.001       .  S
O192        C202   1.280       .  A
O193       Cd194   1.971       .  S
Cd194       O196   2.021       .  S
O195        C202   1.277       .  A
C197        C416   1.485   1_565  S
C197        O201   1.275       .  A
C198        C641   1.478       .  S
C200        C389   1.479       .  S
C202        C365   1.482       .  S
C203        C500   1.480       .  S
C203        O204   1.277       .  A
C205        N206   1.362       .  A
C205        N210   1.362       .  A
C205        C701   1.482       .  S
N206        C207   1.360       .  A
C207        N208   1.359       .  A
C207        C392   1.495       .  S
N208        C209   1.357       .  A
C209        N210   1.358       .  A
C209        C353   1.476       .  S
C211        N212   1.359       .  A
C211        N216   1.356       .  A
C211        C344   1.463       .  S
N212        C213   1.361       .  A
C213        N214   1.357       .  A
C213        C332   1.470       .  S
N214        C215   1.353       .  A
C215        N216   1.353       .  A
C215        C452   1.473       .  S
O217        C233   1.273       .  A
O217       Zn223   2.032       .  S
C218        C521   1.475       .  S
C218        O234   1.274       .  A
C218        O231   1.276       .  A
O219        C232   1.277       .  A
O219       Cd226   2.087       .  S
O220        C238   1.280       .  A
O220       Cd229   2.094       .  S
O221        C235   1.269       .  A
O221       Cd225   2.028       .  S
O222        C233   1.270       .  A
O222       Cd225   2.041       .  S
Zn223       O234   2.007       .  S
Zn223       O236   1.991       .  S
Zn223       O228   1.936       .  S
O224        C235   1.276       .  A
O224       Cd229   2.091       .  S
Cd225       O227   2.043       .  S
Cd225       O228   1.972       .  S
Cd226       O230   2.093       .  S
Cd226       O239   2.074       .  S
Cd226       O228   2.003       .  S
O227        C237   1.271       .  A
O228       Cd229   2.015       .  S
Cd229       O231   2.078       .  S
O230        C237   1.277       .  A
C232        C341   1.485       .  S
C232        O236   1.273       .  A
C233        C488   1.475       .  S
C235        C305   1.482       .  S
C237        C320   1.488       .  S
C238        C356   1.493       .  S
C238        O239   1.278       .  A
C240        N241   1.366   1_556  A
C240        N245   1.361       .  A
C240        C545   1.477       .  S
N241        C242   1.361       .  A
C242        N243   1.354       .  A
C242        C368   1.487       .  S
N243        C244   1.355   1_554  A
C244        N245   1.356       .  A
C244        C308   1.481       .  S
C246        N247   1.360       .  A
C246        N251   1.356       .  A
C246        C293   1.465       .  S
N247        C248   1.361       .  A
C248        N249   1.355       .  A
C248        C317   1.469       .  S
N249        C250   1.356       .  A
C250        N251   1.354       .  A
C250        C380   1.477       .  S
O252        C268   1.277       .  A
O252       Zn258   2.059       .  S
C253        C572   1.477   1_545  S
C253        O269   1.276       .  A
C253        O266   1.278       .  A
O254        C267   1.275   1_545  A
O254       Cd261   2.073       .  S
O255        C273   1.282       .  A
O255       Cd264   2.114       .  S
O256        C270   1.271       .  A
O256       Cd260   2.037       .  S
O257        C268   1.269       .  A
O257       Cd260   2.029       .  S
Zn258       O269   2.019       .  S
Zn258       O271   2.023   1_545  S
Zn258       O263   1.953       .  S
O259        C270   1.279       .  A
O259       Cd264   2.112       .  S
Cd260       O262   2.046       .  S
Cd260       O263   1.980       .  S
Cd261       O265   2.069       .  S
Cd261       O274   2.069       .  S
Cd261       O263   1.999       .  S
O262        C272   1.271       .  A
O263       Cd264   2.021       .  S
Cd264       O266   2.090       .  S
O265        C272   1.274       .  A
C267        C296   1.478       .  S
C267        O271   1.276       .  A
C268        C401   1.481       .  S
C270        C281   1.487       .  S
C272        C329   1.481       .  S
C273        C428   1.496       .  S
C273        O274   1.276       .  A
C275        N276   1.363       .  A
C275        N280   1.366       .  A
C275        C605   1.484       .  S
N276        C277   1.357       .  A
C277        N278   1.354       .  A
C277        C284   1.489       .  S
N278        C279   1.355       .  A
C279        N280   1.362       .  A
C279        C440   1.485       .  S
C281        C282   1.405       .  A
C281        C286   1.410       .  A
C282        C283   1.392       .  A
C282        H287   1.084       .  S
C283        C284   1.411       .  A
C283        O288   1.372       .  S
C284        C285   1.410       .  A
C285        C286   1.410       .  A
C285        H289   1.083       .  S
C286        O290   1.371       .  S
O288        H292   0.992       .  S
O290        H291   0.992       .  S
C293        C294   1.400       .  A
C293        C298   1.404       .  A
C294        C295   1.399       .  A
C294        H299   1.084       .  S
C295        C296   1.410       .  A
C295        O300   1.371       .  S
C296        C297   1.406       .  A
C297        C298   1.401       .  A
C297        H301   1.084       .  S
C298        O302   1.372       .  S
O300        H304   0.992       .  S
O302        H303   0.992       .  S
C305        C306   1.407       .  A
C305        C310   1.413       .  A
C306        C307   1.408       .  A
C306        H311   1.083       .  S
C307        C308   1.412       .  A
C307        O312   1.371       .  S
C308        C309   1.401       .  A
C309        C310   1.388       .  A
C309        H313   1.083       .  S
C310        O314   1.372       .  S
O312        H316   0.992       .  S
O314        H315   0.992       .  S
C317        C318   1.403       .  A
C317        C322   1.402       .  A
C318        C319   1.403       .  A
C318        H323   1.084       .  S
C319        C320   1.413       .  A
C319        O324   1.371       .  S
C320        C321   1.409       .  A
C321        C322   1.397       .  A
C321        H325   1.083       .  S
C322        O326   1.372       .  S
O324        H328   0.992       .  S
O326        H327   0.992       .  S
C329        C330   1.409       .  A
C329        C334   1.411       .  A
C330        C331   1.399       .  A
C330        H335   1.083       .  S
C331        C332   1.405       .  A
C331        O336   1.371       .  S
C332        C333   1.402       .  A
C333        C334   1.395       .  A
C333        H337   1.084       .  S
C334        O338   1.372       .  S
O336        H340   0.992       .  S
O338        H339   0.992       .  S
C341        C342   1.410       .  A
C341        C346   1.415       .  A
C342        C343   1.404       .  A
C342        H347   1.083       .  S
C343        C344   1.404       .  A
C343        O348   1.371       .  S
C344        C345   1.397       .  A
C345        C346   1.392       .  A
C345        H349   1.084       .  S
C346        O350   1.372       .  S
O348        H352   0.991       .  S
O350        H351   0.992       .  S
C353        C354   1.399       .  A
C353        C358   1.407       .  A
C354        C355   1.398       .  A
C354        H359   1.084       .  S
C355        C356   1.415       .  A
C355        O360   1.372       .  S
C356        C357   1.410       .  A
C357        C358   1.407       .  A
C357        H361   1.083       .  S
C358        O362   1.371       .  S
O360        H364   0.992       .  S
O362        H363   0.992       .  S
C365        C366   1.402       .  A
C365        C370   1.410       .  A
C366        C367   1.396       .  A
C366        H371   1.084       .  S
C367        C368   1.414       .  A
C367        O372   1.372       .  S
C368        C369   1.406       .  A
C369        C370   1.408       .  A
C369        H373   1.083       .  S
C370        O374   1.371       .  S
O372        H376   0.991       .  S
O374        H375   0.992       .  S
C377        C378   1.406       .  A
C377        C382   1.410       .  A
C378        C379   1.391       .  A
C378        H383   1.084       .  S
C379        C380   1.405       .  A
C379        O384   1.372       .  S
C380        C381   1.409       .  A
C381        C382   1.405       .  A
C381        H385   1.084       .  S
C382        O386   1.371       .  S
O384        H388   0.992       .  S
O386        H387   0.992       .  S
C389        C390   1.402       .  A
C389        C394   1.409       .  A
C390        C391   1.408       .  A
C390        H395   1.083       .  S
C391        C392   1.418       .  A
C391        O396   1.371       .  S
C392        C393   1.406       .  A
C393        C394   1.396       .  A
C393        H397   1.083       .  S
C394        O398   1.373       .  S
O396        H400   0.992       .  S
O398        H399   0.992       .  S
C401        C402   1.405       .  A
C401        C406   1.412       .  A
C402        C403   1.405       .  A
C402        H407   1.083       .  S
C403        C404   1.412       .  A
C403        O408   1.371       .  S
C404        C405   1.403       .  A
C405        C406   1.392       .  A
C405        H409   1.084       .  S
C406        O410   1.373       .  S
O408        H412   0.992       .  S
O410        H411   0.992       .  S
C413        C414   1.401       .  A
C413        C418   1.403       .  A
C414        C415   1.404       .  A
C414        H419   1.084       .  S
C415        C416   1.414       .  A
C415        O420   1.371       .  S
C416        C417   1.407       .  A
C417        C418   1.394       .  A
C417        H421   1.083       .  S
C418        O422   1.372       .  S
O420        H424   0.992       .  S
O422        H423   0.992       .  S
C425        C426   1.402       .  A
C425        C430   1.409       .  A
C426        C427   1.401       .  A
C426        H431   1.084       .  S
C427        C428   1.416       .  A
C427        O432   1.372       .  S
C428        C429   1.409       .  A
C429        C430   1.410       .  A
C429        H433   1.083       .  S
C430        O434   1.371       .  S
O432        H436   0.992       .  S
O434        H435   0.992       .  S
C437        C438   1.408       .  A
C437        C442   1.411       .  A
C438        C439   1.409       .  A
C438        H443   1.083       .  S
C439        C440   1.410       .  A
C439        O444   1.371       .  S
C440        C441   1.404       .  A
C441        C442   1.396       .  A
C441        H445   1.084       .  S
C442        O446   1.373       .  S
O444        H448   0.992       .  S
O446        H447   0.992       .  S
C449        C450   1.403       .  A
C449        C454   1.414       .  A
C450        C451   1.399       .  A
C450        H455   1.083       .  S
C451        C452   1.409       .  A
C451        O456   1.372       .  S
C452        C453   1.401       .  A
C453        C454   1.395       .  A
C453        H457   1.084       .  S
C454        O458   1.372       .  S
O456        H460   0.992       .  S
O458        H459   0.992       .  S
C461        C462   1.408       .  A
C461        C466   1.420       .  A
C462        C463   1.411       .  A
C462        H467   1.083       .  S
C463        C464   1.412       .  A
C463        O468   1.371       .  S
C464        C465   1.397       .  A
C465        C466   1.394       .  A
C465        H469   1.084   1_554  S
C466        O470   1.372       .  S
O468        H472   0.992       .  S
O470        H471   0.992       .  S
C473        C474   1.409       .  A
C473        C478   1.407       .  A
C474        C475   1.401       .  A
C474        H479   1.084       .  S
C475        C476   1.406       .  A
C475        O480   1.371       .  S
C476        C477   1.405       .  A
C477        C478   1.394       .  A
C477        H481   1.084       .  S
C478        O482   1.372       .  S
O480        H484   0.992       .  S
O482        H483   0.991       .  S
C485        C486   1.404       .  A
C485        C490   1.413       .  A
C486        C487   1.392       .  A
C486        H491   1.083       .  S
C487        C488   1.408   1_554  A
C487        O492   1.371   1_554  S
C488        C489   1.404   1_556  A
C489        C490   1.404       .  A
C489        H493   1.083   1_554  S
C490        O494   1.371       .  S
O492        H496   0.992       .  S
O494        H495   0.992       .  S
C497        C498   1.401       .  A
C497        C502   1.413       .  A
C498        C499   1.402       .  A
C498        H503   1.084       .  S
C499        C500   1.415       .  A
C499        O504   1.372       .  S
C500        C501   1.401       .  A
C501        C502   1.396       .  A
C501        H505   1.084       .  S
C502        O506   1.372       .  S
O504        H508   0.992       .  S
O506        H507   0.992       .  S
C509        C510   1.400       .  A
C509        C514   1.404       .  A
C510        C511   1.398       .  A
C510        H515   1.084       .  S
C511        C512   1.412       .  A
C511        O516   1.371       .  S
C512        C513   1.410       .  A
C513        C514   1.404       .  A
C513        H517   1.083       .  S
C514        O518   1.371       .  S
O516        H520   0.992       .  S
O518        H519   0.991       .  S
C521        C522   1.402       .  A
C521        C526   1.411       .  A
C522        C523   1.397       .  A
C522        H527   1.084       .  S
C523        C524   1.408       .  A
C523        O528   1.372       .  S
C524        C525   1.403       .  A
C525        C526   1.403       .  A
C525        H529   1.084       .  S
C526        O530   1.372       .  S
O528        H532   0.992       .  S
O530        H531   0.992       .  S
C533        C534   1.402       .  A
C533        C538   1.407       .  A
C534        C535   1.404       .  A
C534        H539   1.083       .  S
C535        C536   1.416       .  A
C535        O540   1.371       .  S
C536        C537   1.405       .  A
C537        C538   1.391       .  A
C537        H541   1.083       .  S
C538        O542   1.373       .  S
O540        H544   0.992       .  S
O542        H543   0.992       .  S
C545        C546   1.403       .  A
C545        C550   1.409       .  A
C546        C547   1.400       .  A
C546        H551   1.084       .  S
C547        C548   1.410       .  A
C547        O552   1.372       .  S
C548        C549   1.405   1_565  A
C549        C550   1.403   1_545  A
C549        H553   1.084       .  S
C550        O554   1.372       .  S
O552        H556   0.992       .  S
O554        H555   0.992       .  S
C557        C558   1.399       .  A
C557        C562   1.406       .  A
C558        C559   1.396       .  A
C558        H563   1.084       .  S
C559        C560   1.411       .  A
C559        O564   1.372       .  S
C560        C561   1.406       .  A
C561        C562   1.404       .  A
C561        H565   1.083       .  S
C562        O566   1.371       .  S
O564        H568   0.992       .  S
O566        H567   0.991       .  S
C569        C570   1.406       .  A
C569        C574   1.411       .  A
C570        C571   1.400       .  A
C570        H575   1.084       .  S
C571        C572   1.406       .  A
C571        O576   1.372       .  S
C572        C573   1.404   1_565  A
C573        C574   1.405   1_545  A
C573        H577   1.084       .  S
C574        O578   1.371       .  S
O576        H580   0.992       .  S
O578        H579   0.992   1_565  S
C581        C582   1.404       .  A
C581        C586   1.410       .  A
C582        C583   1.410       .  A
C582        H587   1.083       .  S
C583        C584   1.417       .  A
C583        O588   1.372       .  S
C584        C585   1.402       .  A
C585        C586   1.392       .  A
C585        H589   1.083       .  S
C586        O590   1.373       .  S
O588        H592   0.992       .  S
O590        H591   0.992       .  S
C593        C594   1.400       .  A
C593        C598   1.411       .  A
C594        C595   1.396       .  A
C594        H599   1.084       .  S
C595        C596   1.415       .  A
C595        O600   1.373       .  S
C596        C597   1.404       .  A
C597        C598   1.402       .  A
C597        H601   1.083       .  S
C598        O602   1.371       .  S
O600        H604   0.992       .  S
O602        H603   0.992       .  S
C605        C606   1.405       .  A
C605        C610   1.412       .  A
C606        C607   1.404       .  A
C606        H611   1.084       .  S
C607        C608   1.410       .  A
C607        O612   1.372       .  S
C608        C609   1.402       .  A
C609        C610   1.401       .  A
C609        H613   1.084       .  S
C610        O614   1.372       .  S
O612        H616   0.992       .  S
O614        H615   0.992       .  S
C617        C618   1.405       .  A
C617        C622   1.407       .  A
C618        C619   1.396       .  A
C618        H623   1.084       .  S
C619        C620   1.410       .  A
C619        O624   1.372       .  S
C620        C621   1.410       .  A
C621        C622   1.403       .  A
C621        H625   1.083       .  S
C622        O626   1.372       .  S
O624        H628   0.992       .  S
O626        H627   0.992       .  S
C629        C630   1.400       .  A
C629        C634   1.404       .  A
C630        C631   1.398       .  A
C630        H635   1.084       .  S
C631        C632   1.409       .  A
C631        O636   1.371       .  S
C632        C633   1.407       .  A
C633        C634   1.400       .  A
C633        H637   1.084       .  S
C634        O638   1.372   1_655  S
O636        H640   0.992       .  S
O638        H639   0.992       .  S
C641        C642   1.403   1_565  A
C641        C646   1.409   1_565  A
C642        C643   1.404       .  A
C642        H647   1.084       .  S
C643        C644   1.414       .  A
C643        O648   1.372       .  S
C644        C645   1.403       .  A
C645        C646   1.399       .  A
C645        H649   1.084       .  S
C646        O650   1.372   1_545  S
O648        H652   0.992       .  S
O650        H651   0.992   1_565  S
C653        C654   1.402       .  A
C653        C658   1.403       .  A
C654        C655   1.404       .  A
C654        H659   1.084       .  S
C655        C656   1.415       .  A
C655        O660   1.372       .  S
C656        C657   1.405       .  A
C657        C658   1.397       .  A
C657        H661   1.083       .  S
C658        O662   1.371       .  S
O660        H664   0.992       .  S
O662        H663   0.992       .  S
C665        C666   1.405       .  A
C665        C670   1.411       .  A
C666        C667   1.394       .  A
C666        H671   1.084       .  S
C667        C668   1.408       .  A
C667        O672   1.373       .  S
C668        C669   1.406       .  A
C669        C670   1.407       .  A
C669        H673   1.083       .  S
C670        O674   1.371       .  S
O672        H676   0.992       .  S
O674        H675   0.992       .  S
C677        C678   1.403       .  A
C677        C682   1.410       .  A
C678        C679   1.402       .  A
C678        H683   1.084       .  S
C679        C680   1.412       .  A
C679        O684   1.371       .  S
C680        C681   1.401       .  A
C681        C682   1.388       .  A
C681        H685   1.084       .  S
C682        O686   1.373       .  S
O684        H688   0.992       .  S
O686        H687   0.992       .  S
C689        C690   1.405       .  A
C689        C694   1.407       .  A
C690        C691   1.405       .  A
C690        H695   1.083       .  S
C691        C692   1.411       .  A
C691        O696   1.371       .  S
C692        C693   1.410       .  A
C693        C694   1.397       .  A
C693        H697   1.084       .  S
C694        O698   1.373       .  S
O696        H700   0.992       .  S
O698        H699   0.992       .  S
C701        C702   1.406       .  A
C701        C706   1.409       .  A
C702        C703   1.402       .  A
C702        H707   1.084       .  S
C703        C704   1.408       .  A
C703        O708   1.372       .  S
C704        C705   1.404       .  A
C705        C706   1.401       .  A
C705        H709   1.084       .  S
C706        O710   1.372       .  S
O708        H712   0.992       .  S
O710        H711   0.992       .  S
C713        C714   1.408       .  A
C713        C718   1.412       .  A
C714        C715   1.401       .  A
C714        H719   1.083       .  S
C715        C716   1.407       .  A
C715        O720   1.371       .  S
C716        C717   1.404       .  A
C717        C718   1.394       .  A
C717        H721   1.084       .  S
C718        O722   1.372       .  S
O720        H724   0.992       .  S
O722        H723   0.992       .  S
C725        C726   1.398       .  A
C725        C730   1.405       .  A
C726        C727   1.396       .  A
C726        H731   1.084       .  S
C727        C728   1.412       .  A
C727        O732   1.372       .  S
C728        C729   1.407       .  A
C729        C730   1.402       .  A
C729        H733   1.083       .  S
C730        O734   1.372       .  S
O732        H736   0.992       .  S
O734        H735   0.992       .  S
C737        C738   1.402       .  A
C737        C742   1.405   1_554  A
C738        C739   1.399       .  A
C738        H743   1.084       .  S
C739        C740   1.409       .  A
C739        O744   1.371       .  S
C740        C741   1.408       .  A
C741        C742   1.401   1_554  A
C741        H745   1.084   1_554  S
C742        O746   1.372       .  S
O744        H748   0.992       .  S
O746        H747   0.992       .  S
C749        C750   1.402       .  A
C749        C754   1.406       .  A
C750        C751   1.394       .  A
C750        H755   1.084       .  S
C751        C752   1.413       .  A
C751        O756   1.373       .  S
C752        C753   1.407       .  A
C753        C754   1.404       .  A
C753        H757   1.083       .  S
C754        O758   1.371       .  S
O756        H760   0.992       .  S
O758        H759   0.992       .  S
C761        C762   1.404       .  A
C761        C766   1.408       .  A
C762        C763   1.403       .  A
C762        H767   1.084       .  S
C763        C764   1.410       .  A
C763        O768   1.372       .  S
C764        C765   1.408       .  A
C765        C766   1.407       .  A
C765        H769   1.083       .  S
C766        O770   1.371       .  S
O768        H772   0.992       .  S
O770        H771   0.991       .  S
C773        C774   1.399       .  A
C773        C778   1.408       .  A
C774        C775   1.392       .  A
C774        H779   1.084       .  S
C775        C776   1.415       .  A
C775        O780   1.372       .  S
C776        C777   1.409       .  A
C777        C778   1.404       .  A
C777        H781   1.083       .  S
C778        O782   1.372       .  S
O780        H784   0.992       .  S
O782        H783   0.992       .  S
C785        C786   1.406   1_554  A
C785        C790   1.415       .  A
C786        C787   1.392   1_556  A
C786        H791   1.083       .  S
C787        C788   1.407       .  A
C787        O792   1.373   1_554  S
C788        C789   1.402       .  A
C789        C790   1.404       .  A
C789        H793   1.083       .  S
C790        O794   1.371       .  S
O792        H796   0.992   1_556  S
O794        H795   0.992       .  S
C797        C798   1.411       .  A
C797        C802   1.412       .  A
C798        C799   1.400       .  A
C798        H803   1.083       .  S
C799        C800   1.404       .  A
C799        O804   1.372       .  S
C800        C801   1.402       .  A
C801        C802   1.398       .  A
C801        H805   1.084       .  S
C802        O806   1.372       .  S
O804        H808   0.992       .  S
O806        H807   0.992       .  S
C809        C810   1.405       .  A
C809        C814   1.405   1_565  A
C810        C811   1.405   1_564  A
C810        H815   1.084   1_554  S
C811        C812   1.412   1_556  A
C811        O816   1.371       .  S
C812        C813   1.409       .  A
C813        C814   1.401       .  A
C813        H817   1.083       .  S
C814        O818   1.372       .  S
O816        H820   0.992       .  S
O818        H819   0.992   1_545  S
C821        C822   1.411       .  A
C821        C826   1.413       .  A
C822        C823   1.401   1_554  A
C822        H827   1.083       .  S
C823        C824   1.402       .  A
C823        O828   1.371       .  S
C824        C825   1.399   1_556  A
C825        C826   1.392       .  A
C825        H829   1.084   1_554  S
C826        O830   1.371       .  S
O828        H832   0.992       .  S
O830        H831   0.992       .  S
C833        C834   1.404       .  A
C833        C838   1.415       .  A
C834        C835   1.399       .  A
C834        H839   1.083       .  S
C835        C836   1.408       .  A
C835        O840   1.373       .  S
C836        C837   1.399       .  A
C837        C838   1.399       .  A
C837        H841   1.084       .  S
C838        O842   1.371       .  S
O840        H844   0.991       .  S
O842        H843   0.992       .  S
C845        C846   1.401       .  A
C845        C850   1.403       .  A
C846        C847   1.404       .  A
C846        H851   1.084       .  S
C847        C848   1.415       .  A
C847        O852   1.371       .  S
C848        C849   1.407       .  A
C849        C850   1.391       .  A
C849        H853   1.083       .  S
C850        O854   1.372       .  S
O852        H856   0.991       .  S
O854        H855   0.992       .  S
