geometry optimzed in LAMMPS
_audit_creation_date              2020-11-30 
_audit_creation_method            'lammps2cif' 
_symmetry_space_group_name_H-M    'P1' 
_symmetry_Int_Tables_number       1 
_symmetry_cell_setting            triclinic 
loop_ 
_symmetry_equiv_pos_as_xyz 
  x,y,z 
_cell_length_a                    62.61892611 
_cell_length_b                    63.13853224866737 
_cell_length_c                    37.76430431298725 
_cell_angle_alpha                 89.96582297864208 
_cell_angle_beta                  90.10520472518844 
_cell_angle_gamma                 123.68171299983733 
loop_ 
_atom_site_label 
_atom_site_type_symbol 
_atom_site_fract_x 
_atom_site_fract_y 
_atom_site_fract_z 
_atom_site_charge 
In1        In  0.51190719  0.90453086  0.51338705     1.36900
C2          C  0.46803792  0.90267809  0.00924171     0.77300
O3          O  0.50178696  0.87360595  0.05196928    -0.61200
O4          O  0.53806605  0.90805037  0.05799378    -0.52100
C5          C  0.51637706  0.88007673  0.45897357     0.70000
O6          O  0.49639435  0.87085850  0.47745868    -0.46900
C7          C  0.53861342  0.95465419  0.51480185     0.74700
O8          O  0.48316189  0.90829004  0.48314510    -0.58800
O9          O  0.52419551  0.94172399  0.04001993    -0.48900
O10         O  0.47463282  0.89655885  0.03694668    -0.55200
C11         C  0.52242230  0.88582605  0.06931416     0.84800
O12         O  0.53429335  0.90217447  0.46840146    -0.57100
O13         O  0.54187488  0.94274126  0.49085394    -0.60400
In14       In  0.40417864  0.90669633  0.00346522     1.36900
C15         C  0.37516273  0.88567685  0.06024897     0.77300
O16         O  0.44010473  0.91202393  0.98057177    -0.61200
O17         O  0.42965585  0.89728114  0.03243936    -0.52100
C18         C  0.37642132  0.87893044  0.44835266     0.70000
O19         O  0.38765364  0.87258371  0.46914211    -0.46900
C20         C  0.42032610  0.95541711  0.99938794     0.74700
O21         O  0.36665035  0.87862231  0.02919684    -0.58800
O22         O  0.42774574  0.94522956  0.97862482    -0.48900
O23         O  0.39828120  0.90430385  0.06204525    -0.55200
C24         C  0.44528199  0.90382732  0.00734074     0.84800
O25         O  0.37879099  0.89950945  0.45661183    -0.57100
O26         O  0.40597529  0.94120408  0.52315796    -0.60400
In27       In  0.45865125  0.03304995  0.50168791     1.36900
C28         C  0.50219910  0.03556125  0.00492835     0.77300
O29         O  0.47197563  0.06324349  0.04329656    -0.61200
O30         O  0.43237667  0.03389402  0.04295932    -0.52100
C31         C  0.44956897  0.05424371  0.44737195     0.70000
O32         O  0.46976636  0.06591159  0.46572139    -0.46900
C33         C  0.43207534  0.98291810  0.49874569     0.74700
O34         O  0.49531829  0.04102316  0.47703911    -0.58800
O35         O  0.42845020  0.99420399  0.02365418    -0.48900
O36         O  0.48822829  0.03092787  0.03164790    -0.55200
C37         C  0.45024623  0.05422217  0.05718014     0.84800
O38         O  0.43375928  0.03160908  0.45709195    -0.57100
O39         O  0.44583782  0.99681488  0.47351011    -0.60400
In40       In  0.56614112  0.03129806  0.00763216     1.36900
C41         C  0.59366093  0.05287534  0.44988155     0.77300
O42         O  0.54283088  0.99322002  0.03403438    -0.61200
O43         O  0.56587558  0.99638474  0.49030469    -0.52100
C44         C  0.59777648  0.05577682  0.06107292     0.70000
O45         O  0.58542051  0.06350390  0.04579500    -0.46900
C46         C  0.52484815  0.03412548  0.00574930     0.74700
O47         O  0.60055277  0.06317941  0.48002169    -0.58800
O48         O  0.53301883  0.02958349  0.53347935    -0.48900
O49         O  0.57288691  0.03121310  0.44977241    -0.55200
C50         C  0.54977971  0.98252504  0.01334372     0.84800
O51         O  0.59504827  0.03611030  0.04779245    -0.57100
O52         O  0.53733982  0.03609589  0.97850495    -0.60400
In53       In  0.91597721  0.38695382  0.49490042     1.36900
C54         C  0.89133738  0.35506005  0.04715830     0.77300
O55         O  0.95025266  0.38548410  0.48262688    -0.61200
O56         O  0.95515890  0.41329083  0.01839688    -0.52100
C57         C  0.89197619  0.35899075  0.43770965     0.70000
O58         O  0.88090434  0.35579676  0.46686162    -0.46900
C59         C  0.91395691  0.42816851  0.49104923     0.74700
O60         O  0.91276399  0.36008289  0.03658367    -0.58800
O61         O  0.91576896  0.41762283  0.96385470    -0.48900
O62         O  0.88311053  0.36655010  0.03086896    -0.55200
C63         C  0.96538432  0.40478804  0.50111891     0.84800
O64         O  0.91564272  0.37623578  0.43826183    -0.57100
O65         O  0.91311025  0.41780946  0.51997639    -0.60400
In66       In  0.91891802  0.49638736  0.98396190     1.36900
C67         C  0.91386264  0.45134800  0.48882981     0.77300
O68         O  0.88483810  0.48559478  0.44937109    -0.61200
O69         O  0.92071849  0.51881281  0.43680028    -0.52100
C70         C  0.89811447  0.50660573  0.03674391     0.70000
O71         O  0.88784752  0.48469186  0.02342873    -0.46900
C72         C  0.96951937  0.52272081  0.98676662     0.74700
O73         O  0.91550811  0.46412268  0.01535789    -0.58800
O74         O  0.95682436  0.51134462  0.45976404    -0.48900
O75         O  0.91361343  0.46102075  0.45980628    -0.55200
C76         C  0.89729997  0.50432128  0.42882297     0.84800
O77         O  0.91912399  0.52352433  0.02274755    -0.57100
O78         O  0.95630326  0.52240326  0.01213097    -0.60400
In79       In  0.04603750  0.55072846  0.49673756     1.36900
C80         C  0.06641486  0.57664864  0.05546487     0.77300
O81         O  0.00897520  0.53102738  0.46672699    -0.61200
O82         O  0.00992778  0.54551979  0.01677278    -0.52100
C83         C  0.07399974  0.58307464  0.44594321     0.70000
O84         O  0.08084275  0.57060350  0.46297554    -0.46900
C85         C  0.04923713  0.51010789  0.49491935     0.74700
O86         O  0.07352660  0.58647113  0.02513942    -0.58800
O87         O  0.04217666  0.51707251  0.46877350    -0.48900
O88         O  0.04838081  0.55335436  0.05527492    -0.55200
C89         C  0.99669921  0.53380508  0.49042822     0.84800
O90         O  0.05300687  0.57950413  0.45584432    -0.57100
O91         O  0.05505884  0.52402732  0.52179266    -0.60400
In92       In  0.04373487  0.44130343  0.99756245     1.36900
C93         C  0.04932062  0.48693640  0.49480372     0.77300
O94         O  0.07638922  0.45496824  0.46004773    -0.61200
O95         O  0.04220583  0.41903719  0.45080695    -0.52100
C96         C  0.06383235  0.43119282  0.05204236     0.70000
O97         O  0.07609619  0.45144807  0.03439721    -0.46900
C98         C  0.99309700  0.41576851  0.00135279     0.83100
O99         O  0.05445433  0.47845162  0.02171925    -0.58800
O100        O  0.00421090  0.40972831  0.48141990    -0.48900
O101        O  0.04298948  0.47262737  0.46809959    -0.55200
C102        C  0.06489557  0.43523919  0.44111013     0.84800
O103        O  0.04128412  0.41563954  0.04123375    -0.57100
O104        O  0.00763513  0.43279287  0.02331428    -0.60400
In105      In  0.49972987  0.63606239  0.25268319     1.36900
C106        C  0.45483610  0.59152660  0.25077850     0.77300
O107        O  0.49757662  0.63684120  0.19407806    -0.61200
O108        O  0.52512423  0.63108744  0.21554112    -0.52100
C109        C  0.50487962  0.68079816  0.25369668     0.70000
O110        O  0.48381229  0.65963970  0.25135138    -0.46900
C111        C  0.51338244  0.63044790  0.31695006     0.74700
O112        O  0.45683131  0.61240696  0.25453861    -0.58800
O113        O  0.52800095  0.63644324  0.29047884    -0.48900
O114        O  0.47598947  0.59366552  0.24796739    -0.55200
C115        C  0.51389754  0.63162736  0.18801197     0.84800
O116        O  0.52416449  0.67928781  0.25587916    -0.57100
O117        O  0.49300626  0.62922626  0.31053885    -0.60400
In118      In  0.13205668  0.44568963  0.24629077     1.36900
C119        C  0.13507851  0.48912455  0.24709203     0.77300
O120        O  0.13484774  0.45071183  0.18769857    -0.61200
O121        O  0.10076598  0.41860526  0.20836256    -0.52100
C122        C  0.17260685  0.44252441  0.24941683     0.70000
O123        O  0.17365443  0.46296271  0.24878612    -0.46900
C124        C  0.11021921  0.43193712  0.30996725     0.74700
O125        O  0.15461616  0.48813044  0.24663138    -0.58800
O126        O  0.09917828  0.41868595  0.28265846    -0.48900
O127        O  0.11401957  0.46775972  0.24606559    -0.55200
C128        C  0.11250425  0.43189720  0.18140032     0.84800
O129        O  0.15005211  0.42272557  0.24759990    -0.57100
O130        O  0.13297423  0.45031378  0.30471632    -0.60400
In131      In  0.31145466  0.44983539  0.25581553     1.36900
C132        C  0.35584926  0.49518904  0.25492504     0.77300
O133        O  0.31716277  0.45521283  0.31439746    -0.61200
O134        O  0.31092349  0.42132455  0.29292915    -0.52100
C135        C  0.26576258  0.44359792  0.25384868     0.70000
O136        O  0.28681557  0.46487734  0.25214052    -0.46900
C137        C  0.31674464  0.43439150  0.19243836     0.74700
O138        O  0.33463509  0.49239200  0.26087020    -0.58800
O139        O  0.31651874  0.42382552  0.22096043    -0.48900
O140        O  0.35416694  0.47458996  0.24970924    -0.55200
C141        C  0.31622495  0.43507927  0.32005345     0.84800
O142        O  0.26793144  0.42493070  0.25633719    -0.57100
O143        O  0.31241444  0.45149272  0.19661746    -0.60400
In144      In  0.14014954  0.62534922  0.24958124     1.36900
C145        C  0.13752268  0.58192124  0.25075818     0.77300
O146        O  0.14210438  0.62351327  0.30799264    -0.61200
O147        O  0.11312795  0.62717901  0.28624835    -0.52100
C148        C  0.18350310  0.67024627  0.24469013     0.70000
O149        O  0.18162777  0.64956516  0.24018359    -0.46900
C150        C  0.11623179  0.61893076  0.18882760     0.74700
O151        O  0.15809543  0.60315932  0.25644158    -0.58800
O152        O  0.10609966  0.61723679  0.21840329    -0.48900
O153        O  0.11846309  0.58318304  0.24509359    -0.55200
C154        C  0.12275112  0.62429143  0.31367089     0.84800
O155        O  0.16252987  0.66792448  0.25124522    -0.57100
O156        O  0.13941235  0.62603871  0.19040455    -0.60400
In157      In  0.50618939  0.81526101  0.26175513     1.36900
C158        C  0.46298577  0.81322487  0.25816592     0.77300
O159        O  0.49809204  0.81211818  0.31962928    -0.61200
O160        O  0.53286124  0.84485326  0.30205872    -0.52100
C161        C  0.50922835  0.77492300  0.26084241     0.70000
O162        O  0.48851228  0.77370300  0.25866832    -0.46900
C163        C  0.52209751  0.83675924  0.19802555     0.74700
O164        O  0.46364064  0.79365181  0.25939247    -0.58800
O165        O  0.53451902  0.84798514  0.22591395    -0.48900
O166        O  0.48470800  0.83396226  0.25894337    -0.55200
C167        C  0.51772752  0.83349203  0.32771881     0.84800
O168        O  0.52896782  0.79729616  0.26385085    -0.57100
O169        O  0.50345110  0.81426836  0.20310052    -0.60400
In170      In  0.32673075  0.80968921  0.25076265     1.36900
C171        C  0.37019359  0.81200849  0.25020652     0.77300
O172        O  0.32740365  0.81141578  0.19205712    -0.61200
O173        O  0.33157358  0.84248007  0.22048482    -0.52100
C174        C  0.28055462  0.76748910  0.24671265     0.70000
O175        O  0.30080151  0.76854212  0.23996742    -0.46900
C176        C  0.33233259  0.82767853  0.31558489     0.74700
O177        O  0.34861615  0.79158287  0.25506262    -0.58800
O178        O  0.32824883  0.83735151  0.28937046    -0.48900
O179        O  0.36925895  0.83117203  0.24500983    -0.55200
C180        C  0.33176057  0.83342948  0.19081945     0.84800
O181        O  0.28409787  0.78845870  0.25556757    -0.57100
O182        O  0.33133184  0.80764634  0.30858301    -0.60400
In183      In  0.63901404  0.12558787  0.25605918     1.36900
C184        C  0.59523135  0.12295194  0.25762098     0.77300
O185        O  0.63848444  0.12681676  0.19738978    -0.61200
O186        O  0.63680868  0.09556883  0.22137766    -0.52100
C187        C  0.68376627  0.16896443  0.25016114     0.70000
O188        O  0.66270666  0.16711688  0.24906270    -0.46900
C189        C  0.63671094  0.10594844  0.31918368     0.74700
O190        O  0.61650337  0.14268549  0.26589589    -0.58800
O191        O  0.63447793  0.09455660  0.29061628    -0.48900
O192        O  0.59641900  0.10434417  0.24924376    -0.55200
C193        C  0.63663360  0.10610834  0.19303977     0.84800
O194        O  0.68195847  0.14820320  0.25457557    -0.57100
O195        O  0.64205163  0.12814985  0.31512631    -0.60400
In196      In  0.45930073  0.12032485  0.25225107     1.36900
C197        C  0.50304876  0.12313410  0.25212977     0.77300
O198        O  0.46493633  0.12091733  0.31060540    -0.61200
O199        O  0.43147123  0.08842851  0.28933265    -0.52100
C200        C  0.45601037  0.16060768  0.25567373     0.70000
O201        O  0.47667443  0.16175639  0.25702551    -0.46900
C202        C  0.44578044  0.09966207  0.18755230     0.74700
O203        O  0.50217203  0.14255190  0.24961174    -0.58800
O204        O  0.43206450  0.08856257  0.21449384    -0.48900
O205        O  0.48138765  0.10242975  0.25402497    -0.55200
C206        C  0.44556458  0.09887097  0.31626598     0.84800
O207        O  0.43628013  0.13830334  0.25173427    -0.57100
O208        O  0.46450921  0.12204934  0.19361352    -0.60400
In209      In  0.65125170  0.48852157  0.24424643     1.36900
C210        C  0.60735455  0.44301939  0.24837148     0.77300
O211        O  0.65351547  0.49032940  0.30337635    -0.61200
O212        O  0.64507148  0.51453368  0.27773595    -0.52100
C213        C  0.69703820  0.49469372  0.23960756     0.70000
O214        O  0.67652933  0.47429451  0.24816390    -0.46900
C215        C  0.64296106  0.49976670  0.18001473     0.74700
O216        O  0.62881584  0.44580299  0.24504984    -0.58800
O217        O  0.65053779  0.51527569  0.20552458    -0.48900
O218        O  0.60869075  0.46362649  0.24989247    -0.55200
C219        C  0.64698648  0.50580509  0.30678500     0.84800
O220        O  0.69454214  0.51303956  0.23478384    -0.57100
O221        O  0.64131185  0.47942293  0.18706429    -0.60400
In222      In  0.46649025  0.29963912  0.24851488     1.36900
C223        C  0.51190330  0.34350011  0.24859942     0.77300
O224        O  0.47241153  0.30181316  0.19003085    -0.61200
O225        O  0.44162694  0.30345343  0.20886543    -0.52100
C226        C  0.45867082  0.25377346  0.25294132     0.70000
O227        O  0.48028806  0.27431967  0.25649780    -0.46900
C228        C  0.45093891  0.30565354  0.31140514     0.74700
O229        O  0.50951963  0.32235107  0.24663879    -0.58800
O230        O  0.43849158  0.30246469  0.28325593    -0.48900
O231        O  0.49093665  0.34186303  0.25039916    -0.55200
C232        C  0.45495300  0.30522380  0.18249294     0.84800
O233        O  0.44055709  0.25663713  0.24695839    -0.57100
O234        O  0.47000508  0.30422984  0.30704254    -0.60400
In235      In  0.83350479  0.49653474  0.23170893     1.36900
C236        C  0.83104071  0.45307909  0.23145267     0.77300
O237        O  0.83225486  0.49136683  0.17340116    -0.61200
O238        O  0.86513049  0.52460122  0.19461790    -0.52100
C239        C  0.79306090  0.50047683  0.23017400     0.70000
O240        O  0.79172336  0.47985652  0.22841781    -0.46900
C241        C  0.85409227  0.50983088  0.29648282     0.74700
O242        O  0.81158580  0.45404492  0.23541938    -0.58800
O243        O  0.86570515  0.52310081  0.26945397    -0.48900
O244        O  0.85175950  0.47449844  0.22780030    -0.55200
C245        C  0.85432865  0.51082966  0.16759393     0.84800
O246        O  0.81579369  0.51989369  0.23228351    -0.57100
O247        O  0.83139246  0.49158341  0.29038426    -0.60400
In248      In  0.82071985  0.31393939  0.24036431     1.36900
C249        C  0.82294041  0.35721185  0.23722030     0.77300
O250        O  0.82034815  0.31669116  0.29955472    -0.61200
O251        O  0.85132795  0.31760019  0.27541342    -0.52100
C252        C  0.77774457  0.26826093  0.24233608     0.70000
O253        O  0.77840823  0.28842358  0.23907078    -0.46900
C254        C  0.84114580  0.31516231  0.17823803     0.74700
O255        O  0.80216457  0.33566108  0.23849995    -0.58800
O256        O  0.85133058  0.31571612  0.20728351    -0.48900
O257        O  0.84270511  0.35657339  0.23740831    -0.55200
C258        C  0.84167936  0.31932251  0.30359602     0.84800
O259        O  0.79945704  0.27143530  0.24409365    -0.57100
O260        O  0.81984296  0.31269052  0.18127871    -0.60400
In261      In  0.39255824  0.44133656  0.50632174     1.36900
C262        C  0.43686213  0.48663524  0.00598372     0.77300
O263        O  0.37839748  0.45451159  0.04856881    -0.61200
O264        O  0.36141812  0.41478031  0.04521043    -0.52100
C265        C  0.36101664  0.43372778  0.45259776     0.70000
O266        O  0.36605191  0.41768683  0.46140781    -0.46900
C267        C  0.41271865  0.41354979  0.50240954     0.74700
O268        O  0.42303866  0.47774369  0.47957585    -0.58800
O269        O  0.40267118  0.41467930  0.02964485    -0.48900
O270        O  0.42783120  0.47300671  0.03332375    -0.55200
C271        C  0.36211472  0.43280377  0.06088093     0.84800
O272        O  0.37164993  0.45327994  0.47187341    -0.57100
O273        O  0.41122566  0.42502643  0.47623458    -0.60400
In274      In  0.50797150  0.55574690  0.50324520     1.36900
C275        C  0.46172610  0.51131735  0.00541986     0.77300
O276        O  0.52273142  0.53612117  0.47254122    -0.61200
O277        O  0.53363491  0.54490322  0.02683819    -0.52100
C278        C  0.51493535  0.58653270  0.44971623     0.70000
O279        O  0.49484241  0.57488250  0.46809129    -0.46900
C280        C  0.51661265  0.58600069  0.05766948     0.74700
O281        O  0.47088545  0.52485045  0.47815843    -0.58800
O282        O  0.53455230  0.58629021  0.04200826    -0.48900
O283        O  0.47578511  0.52105085  0.03240287    -0.55200
C284        C  0.53514347  0.53525746  0.49811554     0.84800
O285        O  0.53194951  0.58289216  0.45932691    -0.57100
O286        O  0.49460646  0.57034294  0.04515589    -0.60400
In287      In  0.56841469  0.49461156  0.49281599     1.36900
C288        C  0.52406072  0.44885712  0.49556711     0.77300
O289        O  0.56036326  0.52065399  0.02194033    -0.61200
O290        O  0.54636454  0.50931616  0.46872571    -0.52100
C291        C  0.59916094  0.50129208  0.04695901     0.70000
O292        O  0.59719884  0.51890459  0.03547784    -0.46900
C293        C  0.59907547  0.50575134  0.43676842     0.74700
O294        O  0.53413895  0.46252985  0.02276995    -0.58800
O295        O  0.59241600  0.52017701  0.44735812    -0.48900
O296        O  0.53672451  0.45809032  0.46746156    -0.55200
C297        C  0.54815990  0.52190209  0.99633913     0.84800
O298        O  0.58597050  0.48058644  0.03033926    -0.57100
O299        O  0.59069658  0.48615120  0.45543963    -0.60400
In300      In  0.45361675  0.37950602  0.99733100     1.36900
C301        C  0.49926509  0.42417620  0.49664795     0.77300
O302        O  0.46507741  0.36081765  0.45936587    -0.61200
O303        O  0.42805614  0.35356017  0.45281634    -0.52100
C304        C  0.44892570  0.34966192  0.05161337     0.70000
O305        O  0.46992975  0.36561301  0.03685165    -0.46900
C306        C  0.42566390  0.39960374  0.99971387     0.74700
O307        O  0.48586759  0.41509601  0.02426470    -0.58800
O308        O  0.43587615  0.39897275  0.47227302    -0.48900
O309        O  0.48942715  0.41026978  0.46973494    -0.55200
C310        C  0.44471516  0.34993080  0.44140263     0.84800
O311        O  0.42987892  0.34850601  0.03799232    -0.57100
O312        O  0.42789312  0.38858042  0.02591186    -0.60400
C313        C  0.80765513  0.40745100  0.24715261    -0.20600
C314        C  0.82941712  0.42873886  0.23181631    -0.07200
C315        C  0.84872709  0.42611962  0.21739646     0.13700
C316        C  0.84591118  0.40250164  0.21960034    -0.20700
C317        C  0.82425483  0.38132443  0.23529675    -0.07200
C318        C  0.80474038  0.38381120  0.24907482     0.13700
C319        C  0.78113417  0.36197284  0.26677005    -0.24000
H320        H  0.79278205  0.40937863  0.25823333     0.15000
H321        H  0.86072521  0.40049401  0.20863231     0.15000
C322        C  0.87203928  0.44775918  0.19891726    -0.24000
H323        H  0.76864287  0.36782067  0.27752858     0.05200
H324        H  0.78681085  0.35468124  0.28915245     0.08400
H325        H  0.76956091  0.34650033  0.24734833     0.08400
H326        H  0.88400229  0.46341097  0.21793296     0.08400
H327        H  0.86598939  0.45486470  0.17673406     0.08400
H328        H  0.88427397  0.44174662  0.18770208     0.05200
C329        C  0.42988154  0.31324352  0.13947149    -0.20600
C330        C  0.45158519  0.31258490  0.14635309    -0.07200
C331        C  0.47070634  0.32137941  0.11973923     0.13700
C332        C  0.46845313  0.33221721  0.08864689    -0.20700
C333        C  0.44760752  0.33440771  0.08277163    -0.07200
C334        C  0.42749203  0.32376548  0.10797777     0.13700
C335        C  0.40387154  0.32415879  0.10267438    -0.24000
H336        H  0.41497414  0.30615372  0.15935312     0.15000
H337        H  0.48359618  0.33972936  0.06904723     0.15000
C338        C  0.49413823  0.32043209  0.12399582    -0.24000
H339        H  0.39028675  0.31517780  0.12516581     0.05200
H340        H  0.39365132  0.31341179  0.07832526     0.08400
H341        H  0.40932902  0.34410144  0.10036967     0.08400
H342        H  0.48820857  0.30044688  0.12792750     0.08400
H343        H  0.50580252  0.33232358  0.14686035     0.08400
H344        H  0.50667891  0.32782447  0.10025183     0.05200
C345        C  0.43146837  0.32420767  0.34682027    -0.20600
C346        C  0.44518311  0.31255744  0.34619509    -0.07200
C347        C  0.45538887  0.31022110  0.37842848     0.13700
C348        C  0.45362204  0.32151428  0.40931470    -0.20700
C349        C  0.44159535  0.33476127  0.40937374    -0.07200
C350        C  0.42950030  0.33530012  0.37800118     0.13700
C351        C  0.41576995  0.34872446  0.37668183    -0.24000
H352        H  0.42335951  0.32582864  0.32237284     0.15000
H353        H  0.46239808  0.32061251  0.43354744     0.15000
C354        C  0.46828860  0.29596489  0.38081859    -0.24000
H355        H  0.40804482  0.34788084  0.34983980     0.05200
H356        H  0.42920194  0.36906753  0.38390368     0.08400
H357        H  0.39939209  0.33956241  0.39543287     0.08400
H358        H  0.48671500  0.30624959  0.36617354     0.08400
H359        H  0.45541066  0.27648529  0.36986248     0.08400
H360        H  0.47276485  0.29405376  0.40864767     0.05200
C361        C  0.74516676  0.52041529  0.23698748    -0.20600
C362        C  0.72170128  0.49651210  0.23542942    -0.07200
C363        C  0.72219419  0.47455460  0.22998017     0.13700
C364        C  0.74578360  0.47707198  0.22723064    -0.20700
C365        C  0.76930290  0.50069974  0.23042483    -0.07200
C366        C  0.76895389  0.52281300  0.23499883     0.13700
C367        C  0.79334952  0.54884362  0.23848578    -0.24000
H368        H  0.74491653  0.53735093  0.24079262     0.15000
H369        H  0.74571536  0.45999959  0.22324329     0.15000
C370        C  0.69805556  0.44816570  0.22676918    -0.24000
H371        H  0.78943132  0.56386974  0.24186137     0.05200
H372        H  0.80519875  0.55340539  0.21431247     0.08400
H373        H  0.80429088  0.54942168  0.26203941     0.08400
H374        H  0.68579806  0.44769388  0.20508829     0.08400
H375        H  0.68739603  0.44247816  0.25217526     0.08400
H376        H  0.70227542  0.43363969  0.22059379     0.05200
C377        C  0.58308271  0.39614817  0.24106801    -0.20600
C378        C  0.58278759  0.41766576  0.24950715    -0.07200
C379        C  0.55910664  0.41440904  0.25805100     0.13700
C380        C  0.53668131  0.38990064  0.25800489    -0.20700
C381        C  0.53688044  0.36843713  0.24911117    -0.07200
C382        C  0.56049298  0.37161597  0.24046187     0.13700
C383        C  0.56217005  0.34957042  0.22978925    -0.24000
H384        H  0.60115235  0.39855614  0.23425506     0.15000
H385        H  0.51864144  0.38755847  0.26480257     0.15000
C386        C  0.55694862  0.43641467  0.26721513    -0.24000
H387        H  0.58210658  0.35585111  0.22294307     0.05200
H388        H  0.54997980  0.33998987  0.20612618     0.08400
H389        H  0.55582055  0.33582185  0.25198295     0.08400
H390        H  0.56281142  0.44944617  0.24420860     0.08400
H391        H  0.56919758  0.44682456  0.29050375     0.08400
H392        H  0.53696310  0.42999407  0.27399710     0.05200
C393        C  0.62280580  0.51941519  0.34150587    -0.20600
C394        C  0.63938664  0.51093235  0.34150478    -0.07200
C395        C  0.64517721  0.50414042  0.37424484     0.13700
C396        C  0.63275465  0.50408231  0.40522823    -0.20700
C397        C  0.61471437  0.51061603  0.40461605    -0.07200
C398        C  0.61017087  0.51905374  0.37252782     0.13700
C399        C  0.59055014  0.52575939  0.37023060    -0.24000
H400        H  0.61829271  0.52469651  0.31665713     0.15000
H401        H  0.63644815  0.49795829  0.43000486     0.15000
C402        C  0.66400886  0.49643249  0.37695787    -0.24000
H403        H  0.58861539  0.53090146  0.34282937     0.05200
H404        H  0.59631691  0.54229906  0.38757580     0.08400
H405        H  0.57149009  0.50923263  0.37863225     0.08400
H406        H  0.68258204  0.51130995  0.36486467     0.08400
H407        H  0.65627398  0.47792220  0.36352511     0.08400
H408        H  0.66779323  0.49404916  0.40493873     0.05200
C409        C  0.63783432  0.49211243  0.11529895    -0.20600
C410        C  0.63535316  0.50401930  0.14494479    -0.07200
C411        C  0.62315608  0.51720724  0.14099995     0.13700
C412        C  0.61297286  0.51728623  0.10789822    -0.20700
C413        C  0.61411652  0.50407273  0.07892568    -0.07200
C414        C  0.62749429  0.49206905  0.08228017     0.13700
C415        C  0.63129001  0.47959189  0.05109606    -0.24000
H416        H  0.64745725  0.48222636  0.11820537     0.15000
H417        H  0.60271722  0.52653364  0.10514978     0.15000
C418        C  0.61926826  0.52979759  0.17192398    -0.24000
H419        H  0.64362520  0.47262649  0.05802487     0.05200
H420        H  0.64072547  0.49355363  0.02919657     0.08400
H421        H  0.61258577  0.46299295  0.04185795     0.08400
H422        H  0.63813901  0.54528589  0.18256489     0.08400
H423        H  0.60816225  0.51553564  0.19297961     0.08400
H424        H  0.60849490  0.53834374  0.16418818     0.05200
C425        C  0.43520540  0.18380236  0.24178214    -0.20600
C426        C  0.45544643  0.18378458  0.25792995    -0.07200
C427        C  0.47522475  0.20619562  0.27507044     0.13700
C428        C  0.47515287  0.22831632  0.27346367    -0.20700
C429        C  0.45565851  0.22878256  0.25584425    -0.07200
C430        C  0.43498316  0.20600358  0.24070303     0.13700
C431        C  0.41296764  0.20496846  0.22260903    -0.24000
H432        H  0.41994056  0.16668090  0.22923582     0.15000
H433        H  0.49057861  0.24543198  0.28593430     0.15000
C434        C  0.49630558  0.20707837  0.29593138    -0.24000
H435        H  0.39879592  0.18575845  0.21176255     0.05200
H436        H  0.42023612  0.21872298  0.20029392     0.08400
H437        H  0.40279435  0.20963167  0.24189356     0.08400
H438        H  0.50894158  0.20483635  0.27800330     0.08400
H439        H  0.48778806  0.19175719  0.31618959     0.08400
H440        H  0.50864451  0.22548913  0.30998385     0.05200
C441        C  0.70821916  0.21525141  0.25743235    -0.20600
C442        C  0.70824998  0.19388757  0.24747289    -0.07200
C443        C  0.73113095  0.19706505  0.23506046     0.13700
C444        C  0.75354930  0.22165147  0.23365074    -0.20700
C445        C  0.75350940  0.24299307  0.24398257    -0.07200
C446        C  0.73048130  0.23973304  0.25604094     0.13700
C447        C  0.72914445  0.26165260  0.26868338    -0.24000
H448        H  0.69063925  0.21275917  0.26696259     0.15000
H449        H  0.77116846  0.22425052  0.22411833     0.15000
C450        C  0.73198521  0.17491672  0.22236739    -0.24000
H451        H  0.70984455  0.25512560  0.27909021     0.05200
H452        H  0.73317932  0.27486555  0.24644505     0.08400
H453        H  0.74321756  0.27193061  0.29038830     0.08400
H454        H  0.71777297  0.16478094  0.20075961     0.08400
H455        H  0.72767684  0.16161928  0.24459495     0.08400
H456        H  0.75120796  0.18120675  0.21191120     0.05200
C457        C  0.57343042  0.14571353  0.25780640    -0.20600
C458        C  0.57128120  0.12234047  0.25679914    -0.07200
C459        C  0.54667291  0.09945518  0.25450803     0.13700
C460        C  0.52502985  0.10063107  0.25250940    -0.20700
C461        C  0.52713281  0.12397641  0.25322062    -0.07200
C462        C  0.55172870  0.14687386  0.25611257     0.13700
C463        C  0.55557226  0.17264764  0.25785554    -0.24000
H464        H  0.59211358  0.16314592  0.25966133     0.15000
H465        H  0.50633296  0.08310968  0.25055551     0.15000
C466        C  0.54271317  0.07360934  0.25498105    -0.24000
H467        H  0.57613019  0.18825161  0.26068130     0.05200
H468        H  0.54526079  0.17354056  0.28110695     0.08400
H469        H  0.54839138  0.17620394  0.23315555     0.08400
H470        H  0.55133675  0.07152880  0.27936562     0.08400
H471        H  0.55155355  0.07120214  0.23119551     0.08400
H472        H  0.52204752  0.05795332  0.25477608     0.05200
C473        C  0.44047138  0.83436332  0.24499883    -0.20600
C474        C  0.43892936  0.81226203  0.25576318    -0.07200
C475        C  0.41473038  0.79019830  0.26434989     0.13700
C476        C  0.39289405  0.79097313  0.26206087    -0.20700
C477        C  0.39435062  0.81303114  0.25137252    -0.07200
C478        C  0.41857149  0.83512005  0.24268048     0.13700
C479        C  0.42175833  0.85955214  0.23085958    -0.24000
H480        H  0.45897263  0.85121020  0.23824407     0.15000
H481        H  0.37436744  0.77401791  0.26899571     0.15000
C482        C  0.41157533  0.76586260  0.27659158    -0.24000
H483        H  0.44207933  0.87452962  0.22451725     0.05200
H484        H  0.41564989  0.86709442  0.25230424     0.08400
H485        H  0.41022176  0.85612644  0.20663849     0.08400
H486        H  0.42339690  0.76954216  0.30058302     0.08400
H487        H  0.41735081  0.75799894  0.25517934     0.08400
H488        H  0.39131699  0.75101393  0.28346048     0.05200
C489        C  0.20876954  0.71709491  0.25107320    -0.20600
C490        C  0.20830850  0.69512052  0.24311031    -0.07200
C491        C  0.23154615  0.69739974  0.23468287     0.13700
C492        C  0.25448171  0.72139906  0.23557239    -0.20700
C493        C  0.25510499  0.74328113  0.24464669    -0.07200
C494        C  0.23183158  0.74118457  0.25187230     0.13700
C495        C  0.23089416  0.76397389  0.26046283    -0.24000
H496        H  0.19099118  0.71542155  0.25717504     0.15000
H497        H  0.27218740  0.72294637  0.22954466     0.15000
C498        C  0.23279481  0.67491741  0.22484230    -0.24000
H499        H  0.21092857  0.75862638  0.26459476     0.05200
H500        H  0.23914117  0.77778261  0.23823340     0.08400
H501        H  0.24176369  0.77314096  0.28519534     0.08400
H502        H  0.22065104  0.66519708  0.20119457     0.08400
H503        H  0.22633489  0.66145608  0.24742734     0.08400
H504        H  0.25260617  0.68071266  0.21818998     0.05200
C505        C  0.32385443  0.44322974  0.12800700    -0.20600
C506        C  0.32353635  0.42913846  0.15710833    -0.07200
C507        C  0.33220591  0.41279060  0.15208809     0.13700
C508        C  0.34312446  0.41298097  0.11936480    -0.20700
C509        C  0.34591099  0.42926575  0.09183612    -0.07200
C510        C  0.33489937  0.44352058  0.09557958     0.13700
C511        C  0.33454055  0.45894463  0.06534027    -0.24000
H512        H  0.31642334  0.45508010  0.13100830     0.15000
H513        H  0.35095958  0.40147739  0.11600830     0.15000
C514        C  0.33091759  0.39576162  0.18116001    -0.24000
H515        H  0.32361793  0.46747848  0.07214286     0.05200
H516        H  0.32525786  0.44650298  0.04187214     0.08400
H517        H  0.35434126  0.47476283  0.05847996     0.08400
H518        H  0.31079478  0.38294602  0.19032905     0.08400
H519        H  0.34340362  0.40741615  0.20360901     0.08400
H520        H  0.33758268  0.38364974  0.17197338     0.05200
C521        C  0.32070897  0.44179344  0.38503280    -0.20600
C522        C  0.32276814  0.42965296  0.35531093    -0.07200
C523        C  0.33452026  0.41603160  0.35932758     0.13700
C524        C  0.34539107  0.41646455  0.39216955    -0.20700
C525        C  0.34535695  0.43055648  0.42092555    -0.07200
C526        C  0.33194590  0.44258863  0.41766422     0.13700
C527        C  0.32947779  0.45644828  0.44823020    -0.24000
H528        H  0.31124823  0.45181722  0.38225839     0.15000
H529        H  0.35537140  0.40695454  0.39472669     0.15000
C530        C  0.33719489  0.40235364  0.32872579    -0.24000
H531        H  0.31680737  0.46306785  0.44157648     0.05200
H532        H  0.34854513  0.47349925  0.45533588     0.08400
H533        H  0.32108273  0.44355696  0.47142961     0.08400
H534        H  0.34845247  0.41605179  0.30716449     0.08400
H535        H  0.31790714  0.38725186  0.31872152     0.08400
H536        H  0.34729664  0.39313856  0.33658273     0.05200
C537        C  0.11484577  0.51272999  0.23701557    -0.20600
C538        C  0.13635609  0.51314687  0.24865103    -0.07200
C539        C  0.15779398  0.53595406  0.26240268     0.13700
C540        C  0.15751962  0.55802473  0.26275484    -0.20700
C541        C  0.13612461  0.55772772  0.25050099    -0.07200
C542        C  0.11431519  0.53459727  0.23797071     0.13700
C543        C  0.09033811  0.53247632  0.22523560    -0.24000
H544        H  0.09840441  0.49525373  0.22697557     0.15000
H545        H  0.17392763  0.57541418  0.27286774     0.15000
C546        C  0.18066389  0.53715409  0.27793533    -0.24000
H547        H  0.07547173  0.51292221  0.21618024     0.05200
H548        H  0.09494862  0.54552047  0.20252713     0.08400
H549        H  0.08184959  0.53718130  0.24715315     0.08400
H550        H  0.19060171  0.53335937  0.25708685     0.08400
H551        H  0.17428323  0.52290281  0.29951025     0.08400
H552        H  0.19485480  0.55615803  0.28934931     0.05200
C553        C  0.24151398  0.46288527  0.26574086    -0.20600
C554        C  0.24102694  0.44161151  0.25377864    -0.07200
C555        C  0.21767018  0.42014930  0.24117555     0.13700
C556        C  0.19543711  0.42066383  0.24074233    -0.20700
C557        C  0.19616102  0.44229605  0.25200111    -0.07200
C558        C  0.21961739  0.46364711  0.26492520     0.13700
C559        C  0.22210301  0.48746395  0.27834493    -0.24000
H560        H  0.25926022  0.47918644  0.27562387     0.15000
H561        H  0.17769054  0.40445373  0.23076352     0.15000
C562        C  0.21620881  0.39712372  0.22683950    -0.24000
H563        H  0.24148572  0.50137164  0.28932367     0.05200
H564        H  0.20798541  0.48256370  0.29981842     0.08400
H565        H  0.21900537  0.49714462  0.25634244     0.08400
H566        H  0.22082984  0.38812429  0.24809688     0.08400
H567        H  0.22999219  0.40284040  0.20465204     0.08400
H568        H  0.19674209  0.38262309  0.21668233     0.05200
C569        C  0.48802375  0.72987291  0.24384585    -0.20600
C570        C  0.50952041  0.75159612  0.25891748    -0.07200
C571        C  0.52990580  0.75010834  0.27176191     0.13700
C572        C  0.52812926  0.72693106  0.26904315    -0.20700
C573        C  0.50642010  0.70513523  0.25428546    -0.07200
C574        C  0.48616586  0.70681540  0.24114600     0.13700
C575        C  0.46265337  0.68471746  0.22340803    -0.24000
H576        H  0.47237593  0.73093773  0.23374970     0.15000
H577        H  0.54367927  0.72568465  0.27927478     0.15000
C578        C  0.55310062  0.77248240  0.28934937    -0.24000
H579        H  0.44983789  0.69019527  0.21269290     0.05200
H580        H  0.45122568  0.66916911  0.24275024     0.08400
H581        H  0.46847920  0.67768715  0.20090378     0.08400
H582        H  0.54702986  0.77883403  0.31238299     0.08400
H583        H  0.56365622  0.78834472  0.27017568     0.08400
H584        H  0.56659879  0.76758301  0.29912122     0.05200
C585        C  0.50395249  0.62369891  0.38112201    -0.20600
C586        C  0.51820245  0.62368496  0.35240031    -0.07200
C587        C  0.53381470  0.61417027  0.35751345     0.13700
C588        C  0.53351143  0.60361872  0.39043533    -0.20700
C589        C  0.51764398  0.60179409  0.41813977    -0.07200
C590        C  0.50338595  0.61285881  0.41383395     0.13700
C591        C  0.48750656  0.61338178  0.44340045    -0.24000
H592        H  0.49231929  0.63137002  0.37755282     0.15000
H593        H  0.54467194  0.59539089  0.39385276     0.15000
C594        C  0.54969734  0.61365227  0.32802982    -0.24000
H595        H  0.47933166  0.62453538  0.43607026     0.05200
H596        H  0.49965601  0.62232074  0.46729473     0.08400
H597        H  0.47116431  0.59379480  0.44971359     0.08400
H598        H  0.56396375  0.63333646  0.31885206     0.08400
H599        H  0.53706818  0.60198597  0.30567660     0.08400
H600        H  0.56039719  0.60523027  0.33674173     0.05200
C601        C  0.53624737  0.61858013  0.14769848    -0.20600
C602        C  0.51783561  0.62456920  0.15207670    -0.07200
C603        C  0.50161539  0.62082463  0.12300450     0.13700
C604        C  0.50323386  0.60987186  0.09175195    -0.20700
C605        C  0.52020448  0.60215486  0.08847073    -0.07200
C606        C  0.53762304  0.60738617  0.11626583     0.13700
C607        C  0.55655578  0.59983006  0.11382516    -0.24000
H608        H  0.54885354  0.62153877  0.16959553     0.15000
H609        H  0.49020849  0.60619116  0.07006211     0.15000
C610        C  0.48152650  0.62696888  0.12471815    -0.24000
H611        H  0.56815620  0.60464013  0.13839456     0.05200
H612        H  0.56994820  0.61003292  0.09149590     0.08400
H613        H  0.54620513  0.57897709  0.10954413     0.08400
H614        H  0.49069369  0.64740724  0.13118132     0.08400
H615        H  0.46684632  0.61483768  0.14487896     0.08400
H616        H  0.47128778  0.62333147  0.09910344     0.05200
C617        C  0.40821233  0.56605265  0.26318489    -0.20600
C618        C  0.42967888  0.56672992  0.25064562    -0.07200
C619        C  0.42653381  0.54386776  0.23885090     0.13700
C620        C  0.40218949  0.52108285  0.24055780    -0.20700
C621        C  0.38077086  0.52029334  0.25364774    -0.07200
C622        C  0.38387216  0.54323913  0.26502965     0.13700
C623        C  0.36197113  0.54404222  0.27978903    -0.24000
H624        H  0.41054185  0.58353755  0.27221594     0.15000
H625        H  0.39990917  0.50363034  0.23147261     0.15000
C626        C  0.44844921  0.54313440  0.22392802    -0.24000
H627        H  0.36823467  0.56355315  0.28811530     0.05200
H628        H  0.35387810  0.53153966  0.30340959     0.08400
H629        H  0.34686047  0.53778170  0.25932383     0.08400
H630        H  0.46324784  0.54863525  0.24463195     0.08400
H631        H  0.45699748  0.55626124  0.20097732     0.08400
H632        H  0.44205520  0.52379039  0.21457710     0.05200
C633        C  0.06063495  0.41612520  0.38179684    -0.20600
C634        C  0.07669165  0.43168811  0.40952132    -0.07200
C635        C  0.10355032  0.44396939  0.40598072     0.13700
C636        C  0.11361063  0.44212109  0.37384972    -0.20700
C637        C  0.09770162  0.42825149  0.34497992    -0.07200
C638        C  0.07072542  0.41430142  0.34952219     0.13700
C639        C  0.05237933  0.39831357  0.32026743    -0.24000
H640        H  0.04000622  0.40619143  0.38479083     0.15000
H641        H  0.13425377  0.45238046  0.37091995     0.15000
C642        C  0.12183796  0.45881656  0.43594182    -0.24000
H643        H  0.03205256  0.38859181  0.32874448     0.05200
H644        H  0.05563889  0.38340852  0.31225828     0.08400
H645        H  0.05517953  0.41049808  0.29718868     0.08400
H646        H  0.11624670  0.44656538  0.45981540     0.08400
H647        H  0.12169777  0.47592182  0.44201858     0.08400
H648        H  0.14189361  0.46548068  0.42920725     0.05200
C649        C  0.07332970  0.41474979  0.14495365    -0.20600
C650        C  0.10017272  0.42751943  0.14616512    -0.07200
C651        C  0.11446936  0.43852903  0.11467476     0.13700
C652        C  0.10170936  0.43801113  0.08377260    -0.20700
C653        C  0.07513468  0.42689939  0.08339363    -0.07200
C654        C  0.06062353  0.41442453  0.11408115     0.13700
C655        C  0.03202296  0.40220837  0.11527514    -0.24000
H656        H  0.06229415  0.40629631  0.16896455     0.15000
H657        H  0.11271021  0.44717039  0.05998996     0.15000
C658        C  0.14313738  0.45110954  0.11323039    -0.24000
H659        H  0.02397305  0.39425987  0.14185284     0.05200
H660        H  0.02236524  0.38633945  0.09590989     0.08400
H661        H  0.02755919  0.41653273  0.10893687     0.08400
H662        H  0.14807506  0.43775662  0.12307913     0.08400
H663        H  0.15305211  0.46873648  0.12939535     0.08400
H664        H  0.15058102  0.45663696  0.08578551     0.05200
C665        C  0.06452138  0.58065984  0.12031876    -0.20600
C666        C  0.07844491  0.59071695  0.08879699    -0.07200
C667        C  0.10391437  0.61256160  0.09038657     0.13700
C668        C  0.11534765  0.62228531  0.12358969    -0.20700
C669        C  0.10182733  0.61122792  0.15511215    -0.07200
C670        C  0.07574137  0.59073220  0.15342090     0.13700
C671        C  0.05990909  0.57837821  0.18627329    -0.24000
H672        H  0.04485452  0.56427362  0.11912255     0.15000
H673        H  0.13523720  0.63816218  0.12499079     0.15000
C674        C  0.11960976  0.62517252  0.05754060    -0.24000
H675        H  0.04005990  0.56232602  0.17979573     0.05200
H676        H  0.05849735  0.59252792  0.20166441     0.08400
H677        H  0.06881323  0.57071147  0.20281622     0.08400
H678        H  0.11010763  0.63217416  0.04093767     0.08400
H679        H  0.12174531  0.61144827  0.04221748     0.08400
H680        H  0.13916024  0.64178112  0.06401524     0.05200
C681        C  0.12612939  0.62011688  0.37791079    -0.20600
C682        C  0.11160489  0.62003925  0.34947450    -0.07200
C683        C  0.08592158  0.61230665  0.35541981     0.13700
C684        C  0.07477901  0.60217359  0.38850666    -0.20700
C685        C  0.08844548  0.59918926  0.41533302    -0.07200
C686        C  0.11487373  0.60959713  0.41069562     0.13700
C687        C  0.13130514  0.60935941  0.43975517    -0.24000
H688        H  0.14613111  0.62698895  0.37384416     0.15000
H689        H  0.05461631  0.59481097  0.39252484     0.15000
C690        C  0.06962751  0.61323848  0.32681273    -0.24000
H691        H  0.15191960  0.62039359  0.43230344     0.05200
H692        H  0.12551287  0.58959809  0.44525827     0.08400
H693        H  0.12944197  0.61802666  0.46414419     0.08400
H694        H  0.06685213  0.60036057  0.30470747     0.08400
H695        H  0.07899039  0.63303202  0.31692995     0.08400
H696        H  0.05029475  0.60703425  0.33673798     0.05200
C697        C  0.84970769  0.49987269  0.36073545    -0.20600
C698        C  0.86603835  0.51329509  0.33203731    -0.07200
C699        C  0.89290205  0.52635246  0.33715531     0.13700
C700        C  0.90239928  0.52381255  0.36956524    -0.20700
C701        C  0.88591370  0.50857783  0.39713178    -0.07200
C702        C  0.85920666  0.49737419  0.39313560     0.13700
C703        C  0.84049039  0.48283311  0.42271924    -0.24000
H704        H  0.82917653  0.49038108  0.35738065     0.15000
H705        H  0.92292561  0.53297260  0.37278206     0.15000
C706        C  0.91175894  0.54212930  0.30832923    -0.24000
H707        H  0.82070016  0.47693238  0.41559066     0.05200
H708        H  0.84630211  0.49500832  0.44670340     0.08400
H709        H  0.83984178  0.46529071  0.42877127     0.08400
H710        H  0.90929935  0.55757971  0.30034066     0.08400
H711        H  0.90873026  0.52995753  0.28513723     0.08400
H712        H  0.93193314  0.55115186  0.31723763     0.05200
C713        C  0.90335069  0.52702864  0.09504114    -0.20600
C714        C  0.88697891  0.51163450  0.06749274    -0.07200
C715        C  0.86025913  0.49985376  0.07107361     0.13700
C716        C  0.85042483  0.50187168  0.10329883    -0.20700
C717        C  0.86655611  0.51520226  0.13225923    -0.07200
C718        C  0.89350312  0.52880788  0.12756777     0.13700
C719        C  0.91200691  0.54397760  0.15710754    -0.24000
H720        H  0.92386530  0.53638836  0.09191394     0.15000
H721        H  0.82984700  0.49194072  0.10638380     0.15000
C722        C  0.84199834  0.48521656  0.04100476    -0.24000
H723        H  0.93228028  0.55325749  0.14863272     0.05200
H724        H  0.90873605  0.53128492  0.17974627     0.08400
H725        H  0.90936051  0.55917285  0.16579644     0.08400
H726        H  0.84197363  0.46804391  0.03476005     0.08400
H727        H  0.84781742  0.49755498  0.01720294     0.08400
H728        H  0.82199366  0.47875138  0.04768610     0.05200
C729        C  0.89328679  0.35000741  0.37433237    -0.20600
C730        C  0.87847175  0.34483405  0.40493647    -0.07200
C731        C  0.85137987  0.32801734  0.40253246     0.13700
C732        C  0.83998905  0.31875597  0.36917236    -0.20700
C733        C  0.85483985  0.32558288  0.33829349    -0.07200
C734        C  0.88192163  0.34070201  0.34110008     0.13700
C735        C  0.89911231  0.34847620  0.30912329    -0.24000
H736        H  0.91403393  0.36238503  0.37609352     0.15000
H737        H  0.81925042  0.30678254  0.36701647     0.15000
C738        C  0.83414760  0.32021812  0.43446761    -0.24000
H739        H  0.91974706  0.36083942  0.31636952     0.05200
H740        H  0.89495093  0.35931533  0.29039452     0.08400
H741        H  0.89605804  0.33132453  0.29582953     0.08400
H742        H  0.83577573  0.33711629  0.44640654     0.08400
H743        H  0.83950363  0.31090379  0.45423509     0.08400
H744        H  0.81365415  0.30645352  0.42746319     0.05200
C745        C  0.89184140  0.33905624  0.10661892    -0.20600
C746        C  0.87755211  0.33846829  0.07759630    -0.07200
C747        C  0.85054855  0.32460583  0.07998728     0.13700
C748        C  0.83890714  0.31517377  0.11295376    -0.20700
C749        C  0.85359447  0.31902854  0.14337742    -0.07200
C750        C  0.88019147  0.32943365  0.13966531     0.13700
C751        C  0.89676990  0.33178035  0.17040495    -0.24000
H752        H  0.91247130  0.34883224  0.10418992     0.15000
H753        H  0.81835649  0.30598691  0.11525675     0.15000
C754        C  0.83391191  0.31976428  0.04802412    -0.24000
H755        H  0.91679977  0.33949980  0.16203919     0.05200
H756        H  0.88895637  0.31273043  0.18223152     0.08400
H757        H  0.89751772  0.34491168  0.19065423     0.08400
H758        H  0.83872426  0.31105089  0.02659737     0.08400
H759        H  0.83670497  0.33773086  0.03841862     0.08400
H760        H  0.81321305  0.30650361  0.05424298     0.05200
C761        C  0.62509945  0.09243153  0.41783081    -0.20600
C762        C  0.60809611  0.06581470  0.41722231    -0.07200
C763        C  0.60427816  0.05257589  0.38513023     0.13700
C764        C  0.61591359  0.06643459  0.35415724    -0.20700
C765        C  0.63068059  0.09314558  0.35404466    -0.07200
C766        C  0.63627242  0.10634300  0.38663042     0.13700
C767        C  0.65356791  0.13496299  0.38897726    -0.24000
H768        H  0.62859147  0.10256389  0.44252159     0.15000
H769        H  0.61201608  0.05623979  0.32942359     0.15000
C770        C  0.58772178  0.02391638  0.38283419    -0.24000
H771        H  0.65723405  0.14165897  0.41687888     0.05200
H772        H  0.64454221  0.14376620  0.37560726     0.08400
H773        H  0.67236487  0.14170546  0.37654320     0.08400
H774        H  0.56736347  0.01683867  0.38793182     0.08400
H775        H  0.59440032  0.01562982  0.40235384     0.08400
H776        H  0.58854952  0.01699844  0.35616634     0.05200
C777        C  0.62811722  0.09490855  0.09399030    -0.20600
C778        C  0.61291512  0.06828273  0.09313526    -0.07200
C779        C  0.60922605  0.05435185  0.12436365     0.13700
C780        C  0.61921136  0.06750320  0.15637071    -0.20700
C781        C  0.63229610  0.09412474  0.15786920    -0.07200
C782        C  0.63803210  0.10810672  0.12595853     0.13700
C783        C  0.65414667  0.13681437  0.12518126    -0.24000
H784        H  0.63117522  0.10540605  0.06970828     0.15000
H785        H  0.61510647  0.05677642  0.18068126     0.15000
C786        C  0.59304149  0.02565461  0.12461880    -0.24000
H787        H  0.65851676  0.14422681  0.09763874     0.05200
H788        H  0.67267374  0.14412935  0.13894888     0.08400
H789        H  0.64380920  0.14441413  0.13800205     0.08400
H790        H  0.60175384  0.01833050  0.10707419     0.08400
H791        H  0.57333565  0.01851755  0.11522174     0.08400
H792        H  0.59151366  0.01790053  0.15158491     0.05200
C793        C  0.42863140  0.05053306  0.11451693    -0.20600
C794        C  0.44625075  0.06618089  0.08818751    -0.07200
C795        C  0.46037162  0.09287699  0.09264501     0.13700
C796        C  0.45808052  0.10309235  0.12433270    -0.20700
C797        C  0.44229437  0.08745207  0.15221363    -0.07200
C798        C  0.42662804  0.06074488  0.14661923     0.13700
C799        C  0.40858716  0.04271050  0.17466120    -0.24000
H800        H  0.41736585  0.03010480  0.11075732     0.15000
H801        H  0.46964771  0.12353365  0.12786547     0.15000
C802        C  0.47780747  0.11082792  0.06402913    -0.24000
H803        H  0.39761677  0.02263861  0.16543060     0.05200
H804        H  0.39454408  0.04751662  0.18169225     0.08400
H805        H  0.41959085  0.04394676  0.19854375     0.08400
H806        H  0.46686429  0.10663118  0.03894682     0.08400
H807        H  0.49414968  0.10884728  0.05988840     0.08400
H808        H  0.48594751  0.13100986  0.07105010     0.05200
C809        C  0.43067603  0.04968893  0.38765460    -0.20600
C810        C  0.44531290  0.06568367  0.41598923    -0.07200
C811        C  0.45679499  0.09221130  0.41269370     0.13700
C812        C  0.45443803  0.10206148  0.38066411    -0.20700
C813        C  0.44162086  0.08633264  0.35126316    -0.07200
C814        C  0.42915788  0.05966332  0.35508561     0.13700
C815        C  0.41582855  0.04169356  0.32444022    -0.24000
H816        H  0.42176826  0.02938178  0.39019683     0.15000
H817        H  0.46385660  0.12244880  0.37800388     0.15000
C818        C  0.47183274  0.11041017  0.44254818    -0.24000
H819        H  0.40768882  0.02161095  0.33205229     0.05200
H820        H  0.42971374  0.04659374  0.30263978     0.08400
H821        H  0.39980423  0.04296113  0.31485329     0.08400
H822        H  0.48947391  0.11079996  0.44788408     0.08400
H823        H  0.45983055  0.10450331  0.46678679     0.08400
H824        H  0.47794836  0.13017273  0.43605407     0.05200
C825        C  0.35326879  0.87432155  0.39240544    -0.20600
C826        C  0.36242165  0.86402455  0.41630936    -0.07200
C827        C  0.35914326  0.84048164  0.40808064     0.13700
C828        C  0.34758162  0.82847577  0.37601122    -0.20700
C829        C  0.33988549  0.83952537  0.35115207    -0.07200
C830        C  0.34228013  0.86257455  0.35979806     0.13700
C831        C  0.33389544  0.87528877  0.33482270    -0.24000
H832        H  0.35558202  0.89227294  0.39866807     0.15000
H833        H  0.34567995  0.81079418  0.36967572     0.15000
C834        C  0.36825223  0.82791339  0.43213952    -0.24000
H835        H  0.33628863  0.89257032  0.34673922     0.05200
H836        H  0.31328812  0.86194621  0.32809827     0.08400
H837        H  0.34565979  0.88135231  0.31036587     0.08400
H838        H  0.35902508  0.82431999  0.45850447     0.08400
H839        H  0.38945552  0.84018527  0.43486096     0.08400
H840        H  0.36335236  0.80931038  0.42156756     0.05200
C841        C  0.36538397  0.88667063  0.12347915    -0.20600
C842        C  0.35996249  0.87251902  0.09222302    -0.07200
C843        C  0.34247667  0.84578539  0.09317208     0.13700
C844        C  0.33175471  0.83384552  0.12560734    -0.20700
C845        C  0.33856538  0.84777811  0.15727188    -0.07200
C846        C  0.35503044  0.87466356  0.15610633     0.13700
C847        C  0.36324859  0.89078073  0.18915158    -0.24000
H848        H  0.37873856  0.90713627  0.12259601     0.15000
H849        H  0.31912537  0.81329790  0.12651356     0.15000
C850        C  0.33655894  0.82942406  0.06078678    -0.24000
H851        H  0.37640772  0.91136100  0.18311006     0.05200
H852        H  0.37354365  0.88546390  0.20721796     0.08400
H853        H  0.34615790  0.88805173  0.20273103     0.08400
H854        H  0.35456920  0.83254910  0.04992583     0.08400
H855        H  0.32706827  0.83417844  0.04040227     0.08400
H856        H  0.32346462  0.80884017  0.06689848     0.05200
C857        C  0.53932119  0.88041137  0.40482910    -0.20600
C858        C  0.51843206  0.86657537  0.42807381    -0.07200
C859        C  0.49972960  0.84062025  0.42044341     0.13700
C860        C  0.50131918  0.83004673  0.38864354    -0.20700
C861        C  0.52087207  0.84458815  0.36376681    -0.07200
C862        C  0.54078378  0.86982989  0.37282264     0.13700
C863        C  0.56335092  0.88609600  0.34878064    -0.24000
H864        H  0.55407229  0.89996284  0.41094796     0.15000
H865        H  0.48642366  0.81054529  0.38252816     0.15000
C866        C  0.47772918  0.82377321  0.44514577    -0.24000
H867        H  0.57755916  0.90483399  0.36091491     0.05200
H868        H  0.55678584  0.88979915  0.32361891     0.08400
H869        H  0.57327388  0.87634540  0.34327057     0.08400
H870        H  0.46482599  0.83061076  0.44705318     0.08400
H871        H  0.48525400  0.82369864  0.47176640     0.08400
H872        H  0.46593131  0.80377124  0.43567649     0.05200
C873        C  0.51548777  0.84819129  0.10083759    -0.20600
C874        C  0.52711954  0.87459817  0.10051833    -0.07200
C875        C  0.54074229  0.88892270  0.13089887     0.13700
C876        C  0.54052913  0.87615231  0.16166513    -0.20700
C877        C  0.52694269  0.84943374  0.16290431    -0.07200
C878        C  0.51526507  0.83540883  0.13137733     0.13700
C879        C  0.50206184  0.80690436  0.12947394    -0.24000
H880        H  0.50564334  0.83729303  0.07722828     0.15000
H881        H  0.54971496  0.88703236  0.18549039     0.15000
C882        C  0.55419443  0.91743745  0.13185563    -0.24000
H883        H  0.49642008  0.79972169  0.10192700     0.05200
H884        H  0.48423138  0.79724730  0.14546644     0.08400
H885        H  0.51520690  0.80154423  0.13912946     0.08400
H886        H  0.54023554  0.92267000  0.12653155     0.08400
H887        H  0.56961284  0.92627221  0.11162142     0.08400
H888        H  0.56318411  0.92545143  0.15804449     0.05200
In889      In  0.51190038  0.90505314  0.01383430     1.36900
C890        C  0.46799586  0.90208692  0.50880036     0.77300
O891        O  0.50247427  0.87304951  0.55106712    -0.61200
O892        O  0.53809432  0.90805105  0.55791815    -0.52100
C893        C  0.51590086  0.88032573  0.95934773     0.70000
O894        O  0.49575240  0.87162383  0.97729031    -0.46900
C895        C  0.53881256  0.95523556  0.01510234     0.74700
O896        O  0.48301108  0.90851406  0.98342831    -0.58800
O897        O  0.52362816  0.94106360  0.53939024    -0.48900
O898        O  0.47429805  0.89540940  0.53623446    -0.55200
C899        C  0.52290138  0.88560346  0.56878801     0.84800
O900        O  0.53430572  0.90196845  0.96953437    -0.57100
O901        O  0.54160146  0.94321608  0.99080922    -0.60400
In902      In  0.40454828  0.90682121  0.50319933     1.36900
C903        C  0.37509612  0.88626502  0.55973036     0.77300
O904        O  0.44135892  0.91358546  0.48143303    -0.61200
O905        O  0.42887643  0.89550272  0.53117468    -0.52100
C906        C  0.37594689  0.87899575  0.94848150     0.70000
O907        O  0.38686470  0.87234973  0.96939375    -0.46900
C908        C  0.42087023  0.95561786  0.49919477     0.74700
O909        O  0.36657514  0.87950737  0.52861144    -0.58800
O910        O  0.42674033  0.94499377  0.47675144    -0.48900
O911        O  0.39844427  0.90435707  0.56168648    -0.55200
C912        C  0.44542608  0.90355975  0.50705428     0.84800
O913        O  0.37869899  0.89976061  0.95668055    -0.57100
O914        O  0.40391173  0.94058555  0.02170760    -0.60400
In915      In  0.45804424  0.03282516  0.00183053     1.36900
C916        C  0.50282291  0.03586454  0.50473176     0.77300
O917        O  0.47261226  0.06359062  0.54286937    -0.61200
O918        O  0.43306331  0.03412467  0.54290323    -0.52100
C919        C  0.44905265  0.05383330  0.94710646     0.70000
O920        O  0.46882642  0.06582891  0.96623863    -0.46900
C921        C  0.43147355  0.98269674  0.99889543     0.74700
O922        O  0.49466719  0.04069754  0.97724395    -0.58800
O923        O  0.43022893  0.99453143  0.52447866    -0.48900
O924        O  0.48879388  0.03112395  0.53139228    -0.55200
C925        C  0.45094592  0.05451611  0.55696745     0.84800
O926        O  0.43365135  0.03098878  0.95623792    -0.57100
O927        O  0.44641169  0.99669311  0.97461695    -0.60400
In928      In  0.56620982  0.03080360  0.50763763     1.36900
C929        C  0.59347538  0.05364500  0.94974379     0.77300
O930        O  0.54209364  0.99247516  0.53310610    -0.61200
O931        O  0.56552464  0.99680983  0.98993975    -0.52100
C932        C  0.59753743  0.05541172  0.56121703     0.70000
O933        O  0.58535486  0.06316624  0.54547176    -0.46900
C934        C  0.52543935  0.03440388  0.50565807     0.74700
O935        O  0.59901235  0.06476696  0.97935397    -0.58800
O936        O  0.53304627  0.03021226  0.03371829    -0.48900
O937        O  0.57408717  0.03105498  0.95024772    -0.55200
C938        C  0.54955152  0.98193146  0.51303801     0.84800
O939        O  0.59460706  0.03550859  0.54850717    -0.57100
O940        O  0.53842331  0.03711286  0.47863050    -0.60400
In941      In  0.91620660  0.38716914  0.99452178     1.36900
C942        C  0.89113518  0.35489043  0.54768177     0.77300
O943        O  0.95045061  0.38612379  0.98048519    -0.61200
O944        O  0.95509916  0.41433867  0.51737877    -0.52100
C945        C  0.89218369  0.35940773  0.93727884     0.70000
O946        O  0.88121783  0.35555915  0.96670228    -0.46900
C947        C  0.91434319  0.42850117  0.99076453     0.74700
O948        O  0.91286199  0.36043037  0.53769104    -0.58800
O949        O  0.91572958  0.41747932  0.46415517    -0.48900
O950        O  0.88267754  0.36598032  0.53091090    -0.55200
C951        C  0.96547716  0.40443609  0.00053137     0.84800
O952        O  0.91568634  0.37713115  0.93767015    -0.57100
O953        O  0.91382093  0.41831561  0.01968953    -0.60400
In954      In  0.91857178  0.49609154  0.48438349     1.36900
C955        C  0.91423480  0.45166633  0.98852359     0.77300
O956        O  0.88532745  0.48608071  0.94884324    -0.61200
O957        O  0.92120292  0.51938898  0.93655665    -0.52100
C958        C  0.89776291  0.50659058  0.53680021     0.70000
O959        O  0.88781575  0.48449077  0.52429738    -0.46900
C960        C  0.96920694  0.52258859  0.48745169     0.74700
O961        O  0.91494565  0.46369135  0.51569691    -0.58800
O962        O  0.95705191  0.51130758  0.95920287    -0.48900
O963        O  0.91376316  0.46120383  0.95949370    -0.55200
C964        C  0.89780933  0.50488851  0.92844115     0.84800
O965        O  0.91849900  0.52354479  0.52224282    -0.57100
O966        O  0.95587982  0.52196347  0.51288895    -0.60400
In967      In  0.04613888  0.55015900  0.99627481     1.36900
C968        C  0.06640783  0.57757883  0.55564830     0.77300
O969        O  0.00915840  0.53080310  0.96610476    -0.61200
O970        O  0.00965131  0.54566983  0.51740310    -0.52100
C971        C  0.07447985  0.58250984  0.94564258     0.70000
O972        O  0.08083775  0.56949197  0.96226013    -0.46900
C973        C  0.04887986  0.50926072  0.99457655     0.74700
O974        O  0.07337879  0.58725668  0.52522768    -0.58800
O975        O  0.04127453  0.51591299  0.96869594    -0.48900
O976        O  0.04848005  0.55424990  0.55569926    -0.55200
C977        C  0.99696525  0.53373882  0.98976312     0.84800
O978        O  0.05376940  0.57944562  0.95584053    -0.57100
O979        O  0.05540987  0.52359255  0.02111522    -0.60400
In980      In  0.04373921  0.44200806  0.49771251     1.36900
C981        C  0.04893602  0.48606733  0.99453758     0.77300
O982        O  0.07601563  0.45481819  0.95903097    -0.61200
O983        O  0.04321779  0.41739294  0.95274206    -0.52100
C984        C  0.06384854  0.43171690  0.55210732     0.70000
O985        O  0.07616293  0.45188404  0.53431013    -0.46900
C986        C  0.99306447  0.41638036  0.50195017     0.83100
O987        O  0.05433414  0.47902434  0.52215207    -0.58800
O988        O  0.00433136  0.41049372  0.97882974    -0.48900
O989        O  0.04226302  0.47154250  0.96803459    -0.55200
C990        C  0.06528922  0.43433008  0.94172513     0.84800
O991        O  0.04122097  0.41630879  0.54148628    -0.57100
O992        O  0.00772510  0.43493623  0.52182050    -0.60400
In993      In  0.49937559  0.63612135  0.75287888     1.36900
C994        C  0.45456151  0.59155869  0.75089321     0.77300
O995        O  0.49700961  0.63640344  0.69420387    -0.61200
O996        O  0.52509299  0.63152211  0.71586086    -0.52100
C997        C  0.50456857  0.68087856  0.75411021     0.70000
O998        O  0.48345016  0.65972784  0.75226463    -0.46900
C999        C  0.51296468  0.63051802  0.81722922     0.74700
O1000       O  0.45647899  0.61245153  0.75382810    -0.58800
O1001       O  0.52751448  0.63634768  0.79072074    -0.48900
O1002       O  0.47575153  0.59369268  0.74894274    -0.55200
C1003       C  0.51369389  0.63165763  0.68826238     0.84800
O1004       O  0.52385643  0.67934412  0.75563529    -0.57100
O1005       O  0.49268106  0.62947974  0.81082899    -0.60400
In1006     In  0.13260648  0.44667373  0.74640564     1.36900
C1007       C  0.13582552  0.49020296  0.74716163     0.77300
O1008       O  0.13513527  0.45160490  0.68774943    -0.61200
O1009       O  0.10103887  0.41968507  0.70862911    -0.52100
C1010       C  0.17305602  0.44333336  0.74909864     0.70000
O1011       O  0.17422535  0.46383288  0.74842193    -0.46900
C1012       C  0.11089861  0.43260062  0.81021249     0.74700
O1013       O  0.15532853  0.48914349  0.74701052    -0.58800
O1014       O  0.10005379  0.41926698  0.78290031    -0.48900
O1015       O  0.11473092  0.46886504  0.74609296    -0.55200
C1016       C  0.11273447  0.43285257  0.68156542     0.84800
O1017       O  0.15046625  0.42359715  0.74744212    -0.57100
O1018       O  0.13341330  0.45142641  0.80489257    -0.60400
In1019     In  0.31129821  0.44980510  0.75593854     1.36900
C1020       C  0.35566937  0.49518742  0.75500697     0.77300
O1021       O  0.31671726  0.45479510  0.81462249    -0.61200
O1022       O  0.31047653  0.42101227  0.79270697    -0.52100
C1023       C  0.26584354  0.44390744  0.75366898     0.70000
O1024       O  0.28695253  0.46512539  0.75182610    -0.46900
C1025       C  0.31631190  0.43413545  0.69262203     0.74700
O1026       O  0.33450724  0.49232039  0.76159876    -0.58800
O1027       O  0.31703007  0.42421382  0.72124928    -0.48900
O1028       O  0.35395450  0.47463797  0.74919922    -0.55200
C1029       C  0.31572990  0.43460716  0.81998953     0.84800
O1030       O  0.26783417  0.42514255  0.75650321    -0.57100
O1031       O  0.31120741  0.45068858  0.69671992    -0.60400
In1032     In  0.14056930  0.62625361  0.74909802     1.36900
C1033       C  0.13818835  0.58296271  0.74948727     0.77300
O1034       O  0.14274056  0.62399998  0.80738717    -0.61200
O1035       O  0.11359386  0.62767823  0.78642466    -0.52100
C1036       C  0.18385387  0.67117277  0.74415674     0.70000
O1037       O  0.18203603  0.65050644  0.73988409    -0.46900
C1038       C  0.11650971  0.62015128  0.68860777     0.74700
O1039       O  0.15873967  0.60424251  0.75501602    -0.58800
O1040       O  0.10649585  0.61845037  0.71828862    -0.48900
O1041       O  0.11901373  0.58410334  0.74418800    -0.55200
C1042       C  0.12335914  0.62463152  0.81354788     0.84800
O1043       O  0.16287196  0.66882932  0.75074135    -0.57100
O1044       O  0.13964653  0.62710273  0.68997439    -0.60400
In1045     In  0.50640654  0.81563832  0.76152058     1.36900
C1046       C  0.46328085  0.81371767  0.75735353     0.77300
O1047       O  0.49786605  0.81240341  0.81929164    -0.61200
O1048       O  0.53241871  0.84550436  0.80199855    -0.52100
C1049       C  0.50937254  0.77524262  0.76120237     0.70000
O1050       O  0.48871409  0.77410292  0.75870280    -0.46900
C1051       C  0.52257194  0.83681454  0.69766099     0.74700
O1052       O  0.46390126  0.79412716  0.75873602    -0.58800
O1053       O  0.53524847  0.84791363  0.72545818    -0.48900
O1054       O  0.48504038  0.83442167  0.75813047    -0.55200
C1055       C  0.51717467  0.83396484  0.82750399     0.84800
O1056       O  0.52914025  0.79759385  0.76432269    -0.57100
O1057       O  0.50348580  0.81458024  0.70289655    -0.60400
In1058     In  0.32708913  0.81055332  0.75011934     1.36900
C1059       C  0.37054971  0.81277335  0.74974014     0.77300
O1060       O  0.32687761  0.81222825  0.69139714    -0.61200
O1061       O  0.33236965  0.84370476  0.72028333    -0.52100
C1062       C  0.28091147  0.76837069  0.74555703     0.70000
O1063       O  0.30111126  0.76957177  0.73784170    -0.46900
C1064       C  0.33251097  0.82848467  0.81502374     0.74700
O1065       O  0.34905512  0.79259075  0.75599408    -0.58800
O1066       O  0.32870272  0.83829873  0.78870988    -0.48900
O1067       O  0.36950902  0.83168853  0.74289392    -0.55200
C1068       C  0.33177403  0.83446200  0.69041395     0.84800
O1069       O  0.28452343  0.78915944  0.75558594    -0.57100
O1070       O  0.33137686  0.80837983  0.80805137    -0.60400
In1071     In  0.63906373  0.12570165  0.75547814     1.36900
C1072       C  0.59504521  0.12255850  0.75725340     0.77300
O1073       O  0.63823585  0.12695816  0.69684174    -0.61200
O1074       O  0.63783124  0.09631031  0.72058393    -0.52100
C1075       C  0.68366009  0.16916260  0.75005331     0.70000
O1076       O  0.66254685  0.16716459  0.74818176    -0.46900
C1077       C  0.63679846  0.10641457  0.81876176     0.74700
O1078       O  0.61635798  0.14257582  0.76456684    -0.58800
O1079       O  0.63480701  0.09494145  0.79035582    -0.48900
O1080       O  0.59630578  0.10386649  0.74965859    -0.55200
C1081       C  0.63710556  0.10662749  0.69234620     0.84800
O1082       O  0.68195916  0.14850671  0.75505285    -0.57100
O1083       O  0.64190579  0.12850908  0.81441748    -0.60400
In1084     In  0.45905929  0.12000933  0.75221813     1.36900
C1085       C  0.50271004  0.12257169  0.75276114     0.77300
O1086       O  0.46399481  0.12064786  0.81071494    -0.61200
O1087       O  0.43121537  0.08779552  0.78878328    -0.52100
C1088       C  0.45589556  0.16040376  0.75538063     0.70000
O1089       O  0.47651640  0.16146958  0.75679439    -0.46900
C1090       C  0.44601969  0.09966679  0.68735967     0.74700
O1091       O  0.50191431  0.14203168  0.75015320    -0.58800
O1092       O  0.43182147  0.08863084  0.71394361    -0.48900
O1093       O  0.48100680  0.10191209  0.75458998    -0.55200
C1094       C  0.44490186  0.09837048  0.81600459     0.84800
O1095       O  0.43612910  0.13811359  0.75147964    -0.57100
O1096       O  0.46498819  0.12184426  0.69383092    -0.60400
In1097     In  0.65110809  0.48920684  0.74418894     1.36900
C1098       C  0.60726249  0.44362196  0.74828982     0.77300
O1099       O  0.65340409  0.49093968  0.80334557    -0.61200
O1100       O  0.64484995  0.51511111  0.77787159    -0.52100
C1101       C  0.69680459  0.49503435  0.74026953     0.70000
O1102       O  0.67601623  0.47463984  0.74788636    -0.46900
C1103       C  0.64302107  0.50049377  0.67978704     0.74700
O1104       O  0.62877338  0.44651076  0.74507447    -0.58800
O1105       O  0.65062389  0.51605216  0.70524375    -0.48900
O1106       O  0.60851040  0.46419050  0.74978427    -0.55200
C1107       C  0.64684508  0.50638045  0.80687359     0.84800
O1108       O  0.69456723  0.51355930  0.73553643    -0.57100
O1109       O  0.64122771  0.48010875  0.68701563    -0.60400
In1110     In  0.46684856  0.29973234  0.74809241     1.36900
C1111       C  0.51217064  0.34372837  0.74842589     0.77300
O1112       O  0.47288495  0.30224120  0.68960318    -0.61200
O1113       O  0.44175130  0.30323791  0.70856247    -0.52100
C1114       C  0.45890042  0.25378733  0.75228523     0.70000
O1115       O  0.48060169  0.27431116  0.75533837    -0.46900
C1116       C  0.45126762  0.30571427  0.81095293     0.74700
O1117       O  0.50993022  0.32263169  0.74681174    -0.58800
O1118       O  0.43899771  0.30279093  0.78272696    -0.48900
O1119       O  0.49112218  0.34194946  0.74978241    -0.55200
C1120       C  0.45518276  0.30531312  0.68215406     0.84800
O1121       O  0.44077806  0.25671336  0.74679410    -0.57100
O1122       O  0.47018927  0.30403366  0.80671129    -0.60400
In1123     In  0.83346869  0.49693294  0.73153917     1.36900
C1124       C  0.83065658  0.45328170  0.73057706     0.77300
O1125       O  0.83201607  0.49178398  0.67323719    -0.61200
O1126       O  0.86493451  0.52504378  0.69428064    -0.52100
C1127       C  0.79294675  0.50076855  0.73084468     0.70000
O1128       O  0.79167780  0.48017123  0.72972915    -0.46900
C1129       C  0.85437557  0.51027049  0.79621026     0.74700
O1130       O  0.81126519  0.45438237  0.73422845    -0.58800
O1131       O  0.86590412  0.52345755  0.76909472    -0.48900
O1132       O  0.85151281  0.47467156  0.72763437    -0.55200
C1133       C  0.85405077  0.51126134  0.66729675     0.84800
O1134       O  0.81568083  0.52027616  0.73176574    -0.57100
O1135       O  0.83163732  0.49206138  0.79025361    -0.60400
In1136     In  0.82035457  0.31411059  0.74001209     1.36900
C1137       C  0.82232717  0.35727792  0.73667228     0.77300
O1138       O  0.81972935  0.31536666  0.79939797    -0.61200
O1139       O  0.85240511  0.32040420  0.77425007    -0.52100
C1140       C  0.77737521  0.26854207  0.74200378     0.70000
O1141       O  0.77807033  0.28866671  0.73791878    -0.46900
C1142       C  0.84031294  0.31440768  0.67799776     0.74700
O1143       O  0.80165897  0.33573139  0.73925582    -0.58800
O1144       O  0.84962240  0.31337051  0.70700292    -0.48900
O1145       O  0.84210979  0.35667959  0.73591402    -0.55200
C1146       C  0.84202962  0.32017100  0.80288467     0.84800
O1147       O  0.79905668  0.27172421  0.74462272    -0.57100
O1148       O  0.81995435  0.31380763  0.68095592    -0.60400
In1149     In  0.39242244  0.44080844  0.00562637     1.36900
C1150       C  0.43701617  0.48714817  0.50663903     0.77300
O1151       O  0.37839860  0.45479484  0.54944261    -0.61200
O1152       O  0.36108311  0.41504650  0.54515076    -0.52100
C1153       C  0.36059187  0.43296398  0.95215638     0.70000
O1154       O  0.36557379  0.41690962  0.96110041    -0.46900
C1155       C  0.41268163  0.41310524  0.00166795     0.74700
O1156       O  0.42304604  0.47711923  0.97879656    -0.58800
O1157       O  0.40325134  0.41561855  0.53061027    -0.48900
O1158       O  0.42811908  0.47343704  0.53392066    -0.55200
C1159       C  0.36184905  0.43298400  0.56118840     0.84800
O1160       O  0.37140731  0.45264872  0.97115929    -0.57100
O1161       O  0.41167133  0.42502362  0.97568055    -0.60400
In1162     In  0.50769156  0.55543074  0.00311943     1.36900
C1163       C  0.46192398  0.51177839  0.50595279     0.77300
O1164       O  0.52342721  0.53667793  0.97253338    -0.61200
O1165       O  0.53450505  0.54571331  0.52616877    -0.52100
C1166       C  0.51443260  0.58621503  0.94970964     0.70000
O1167       O  0.49430748  0.57439138  0.96801718    -0.46900
C1168       C  0.51682358  0.58617597  0.55799692     0.74700
O1169       O  0.47094680  0.52425117  0.97756220    -0.58800
O1170       O  0.53476253  0.58640655  0.54243341    -0.48900
O1171       O  0.47629201  0.52130461  0.53270402    -0.55200
C1172       C  0.53508943  0.53515932  0.99856898     0.84800
O1173       O  0.53154479  0.58270452  0.95929171    -0.57100
O1174       O  0.49484613  0.57064781  0.54530890    -0.60400
In1175     In  0.56841560  0.49455064  0.99340122     1.36900
C1176       C  0.52407540  0.44874699  0.99579756     0.77300
O1177       O  0.56113811  0.52142204  0.52083144    -0.61200
O1178       O  0.54710602  0.50993891  0.96895986    -0.52100
C1179       C  0.59913181  0.50144903  0.54648332     0.70000
O1180       O  0.59716161  0.51902670  0.53487150    -0.46900
C1181       C  0.59908923  0.50584746  0.93731405     0.74700
O1182       O  0.53422691  0.46271555  0.52245832    -0.58800
O1183       O  0.59252169  0.52029486  0.94815831    -0.48900
O1184       O  0.53680262  0.45810188  0.96777076    -0.55200
C1185       C  0.54817828  0.52197370  0.49570649     0.84800
O1186       O  0.58591564  0.48069438  0.52997069    -0.57100
O1187       O  0.59067004  0.48615644  0.95580621    -0.60400
In1188     In  0.45345527  0.37975961  0.49756640     1.36900
C1189       C  0.49933869  0.42400552  0.99671995     0.77300
O1190       O  0.46514724  0.36026110  0.95946387    -0.61200
O1191       O  0.42844509  0.35365021  0.95224489    -0.52100
C1192       C  0.44875292  0.34979289  0.55164943     0.70000
O1193       O  0.46973437  0.36565404  0.53677403    -0.46900
C1194       C  0.42562811  0.39998210  0.50034631     0.74700
O1195       O  0.48590370  0.41533531  0.52429327    -0.58800
O1196       O  0.43653160  0.39915992  0.97194619    -0.48900
O1197       O  0.48967258  0.41010516  0.96976531    -0.55200
C1198       C  0.44497128  0.34974837  0.94112461     0.84800
O1199       O  0.42972545  0.34877755  0.53823996    -0.57100
O1200       O  0.42840517  0.38945644  0.52669325    -0.60400
C1201       C  0.80680514  0.40746731  0.74537940    -0.20600
C1202       C  0.82880954  0.42882489  0.73060472    -0.07200
C1203       C  0.84817639  0.42618080  0.71650551     0.13700
C1204       C  0.84530664  0.40254258  0.71882562    -0.20700
C1205       C  0.82353017  0.38134340  0.73431153    -0.07200
C1206       C  0.80381431  0.38379046  0.74738462     0.13700
C1207       C  0.77987049  0.36187795  0.76435737    -0.24000
H1208       H  0.79181891  0.40938372  0.75603831     0.15000
H1209       H  0.86022593  0.40056798  0.70819995     0.15000
C1210       C  0.87161914  0.44782756  0.69825785    -0.24000
H1211       H  0.76715525  0.36766671  0.77438245     0.05200
H1212       H  0.78510068  0.35451283  0.78716161     0.08400
H1213       H  0.76869542  0.34648263  0.74467679     0.08400
H1214       H  0.88353068  0.46341056  0.71738553     0.08400
H1215       H  0.86572105  0.45504043  0.67602736     0.08400
H1216       H  0.88385082  0.44177896  0.68714633     0.05200
C1217       C  0.43011904  0.31372599  0.63971807    -0.20600
C1218       C  0.45162884  0.31263864  0.64609424    -0.07200
C1219       C  0.47039362  0.32097841  0.61904996     0.13700
C1220       C  0.46803841  0.33182629  0.58804566    -0.20700
C1221       C  0.44744285  0.33448147  0.58270102    -0.07200
C1222       C  0.42763892  0.32428798  0.60834266     0.13700
C1223       C  0.40429965  0.32524765  0.60364648    -0.24000
H1224       H  0.41546900  0.30698747  0.65992273     0.15000
H1225       H  0.48292355  0.33899662  0.56809552     0.15000
C1226       C  0.49353929  0.31949389  0.62270626    -0.24000
H1227       H  0.39096428  0.31661019  0.62645541     0.05200
H1228       H  0.39364823  0.31447401  0.57952818     0.08400
H1229       H  0.41015688  0.34531538  0.60126015     0.08400
H1230       H  0.48726295  0.29942835  0.62691328     0.08400
H1231       H  0.50568774  0.33150228  0.64518415     0.08400
H1232       H  0.50572145  0.32643769  0.59859788     0.05200
C1233       C  0.43243433  0.32495662  0.84612745    -0.20600
C1234       C  0.44548128  0.31262808  0.84569028    -0.07200
C1235       C  0.45503527  0.30962430  0.87807590     0.13700
C1236       C  0.45328343  0.32087864  0.90902757    -0.20700
C1237       C  0.44190098  0.33473931  0.90894894    -0.07200
C1238       C  0.43049743  0.33603071  0.87733236     0.13700
C1239       C  0.41759166  0.35026043  0.87579815    -0.24000
H1240       H  0.42486260  0.32712581  0.82153422     0.15000
H1241       H  0.46155166  0.31944275  0.93342534     0.15000
C1242       C  0.46717850  0.29465788  0.88054026    -0.24000
H1243       H  0.41039896  0.34997816  0.84877549     0.05200
H1244       H  0.43140307  0.37043847  0.88349541     0.08400
H1245       H  0.40094050  0.34133139  0.89408208     0.08400
H1246       H  0.48574760  0.30463159  0.86624699     0.08400
H1247       H  0.45400038  0.27534906  0.86922008     0.08400
H1248       H  0.47121322  0.29233026  0.90841895     0.05200
C1249       C  0.74479762  0.52058824  0.73369915    -0.20600
C1250       C  0.72147476  0.49666275  0.73704254    -0.07200
C1251       C  0.72216900  0.47455385  0.73728807     0.13700
C1252       C  0.74571963  0.47704092  0.73422715    -0.20700
C1253       C  0.76910821  0.50083472  0.73188739    -0.07200
C1254       C  0.76861037  0.52302412  0.73161954     0.13700
C1255       C  0.79290346  0.54923376  0.72954984    -0.24000
H1256       H  0.74446760  0.53762779  0.73340078     0.15000
H1257       H  0.74577121  0.45986847  0.73443707     0.15000
C1258       C  0.69836496  0.44798100  0.74096738    -0.24000
H1259       H  0.78888599  0.56430976  0.72937694     0.05200
H1260       H  0.80342755  0.55111461  0.70487396     0.08400
H1261       H  0.80519745  0.55258018  0.75289547     0.08400
H1262       H  0.68478879  0.44396812  0.71902422     0.08400
H1263       H  0.68912427  0.44594059  0.76692953     0.08400
H1264       H  0.70275417  0.43318517  0.73992669     0.05200
C1265       C  0.58336056  0.39667326  0.74215176    -0.20600
C1266       C  0.58276280  0.41818525  0.74936058    -0.07200
C1267       C  0.55886304  0.41482656  0.75658551     0.13700
C1268       C  0.53655076  0.39023746  0.75661350    -0.20700
C1269       C  0.53705933  0.36877209  0.74897540    -0.07200
C1270       C  0.56088210  0.37205537  0.74153379     0.13700
C1271       C  0.56291682  0.35002594  0.73214489    -0.24000
H1272       H  0.60159177  0.39914086  0.73632586     0.15000
H1273       H  0.51834966  0.38783755  0.76242267     0.15000
C1274       C  0.55633295  0.43680863  0.76413452    -0.24000
H1275       H  0.58300056  0.35637453  0.72619612     0.05200
H1276       H  0.55116285  0.34017323  0.70825392     0.08400
H1277       H  0.55625940  0.33649469  0.75465394     0.08400
H1278       H  0.56262577  0.44956467  0.74075251     0.08400
H1279       H  0.56803597  0.44753082  0.78765999     0.08400
H1280       H  0.53617501  0.43033083  0.76978787     0.05200
C1281       C  0.62231612  0.51945545  0.84182488    -0.20600
C1282       C  0.63927251  0.51143119  0.84167882    -0.07200
C1283       C  0.64543182  0.50493379  0.87437528     0.13700
C1284       C  0.63301417  0.50470568  0.90548443    -0.20700
C1285       C  0.61463067  0.51079317  0.90502317    -0.07200
C1286       C  0.60967038  0.51889275  0.87294917     0.13700
C1287       C  0.58957026  0.52496570  0.87078318    -0.24000
H1288       H  0.61750202  0.52448539  0.81700510     0.15000
H1289       H  0.63700212  0.49881545  0.93023971     0.15000
C1290       C  0.66468627  0.49775513  0.87690318    -0.24000
H1291       H  0.58733679  0.52987714  0.84338219     0.05200
H1292       H  0.59504557  0.54146588  0.88804336     0.08400
H1293       H  0.57072143  0.50820810  0.87937274     0.08400
H1294       H  0.68309299  0.51283683  0.86465410     0.08400
H1295       H  0.65722849  0.47928408  0.86351252     0.08400
H1296       H  0.66869397  0.49554484  0.90484727     0.05200
C1297       C  0.63763574  0.49230777  0.61520084    -0.20600
C1298       C  0.63553368  0.50469593  0.64456491    -0.07200
C1299       C  0.62374459  0.51824580  0.64021689     0.13700
C1300       C  0.61348691  0.51811725  0.60707073    -0.20700
C1301       C  0.61416021  0.50435835  0.57844775    -0.07200
C1302       C  0.62721589  0.49204923  0.58215049     0.13700
C1303       C  0.63056940  0.47898641  0.55131982    -0.24000
H1304       H  0.64697948  0.48217070  0.61837945     0.15000
H1305       H  0.60352810  0.52764546  0.60404783     0.15000
C1306       C  0.62036984  0.53147102  0.67077321    -0.24000
H1307       H  0.64274226  0.47187208  0.55846140     0.05200
H1308       H  0.63998395  0.49261790  0.52905636     0.08400
H1309       H  0.61170698  0.46240171  0.54251290     0.08400
H1310       H  0.63941605  0.54682284  0.68112222     0.08400
H1311       H  0.60915361  0.51754351  0.69213014     0.08400
H1312       H  0.60993125  0.54031050  0.66274052     0.05200
C1313       C  0.43500812  0.18362015  0.74191334    -0.20600
C1314       C  0.45542623  0.18365332  0.75756231    -0.07200
C1315       C  0.47544482  0.20617568  0.77421794     0.13700
C1316       C  0.47547184  0.22834548  0.77246191    -0.20700
C1317       C  0.45580768  0.22875663  0.75528979    -0.07200
C1318       C  0.43484610  0.20586296  0.74081546     0.13700
C1319       C  0.41255118  0.20472885  0.72348596    -0.24000
H1320       H  0.41952760  0.16641289  0.72981937     0.15000
H1321       H  0.49109544  0.24553906  0.78451628     0.15000
C1322       C  0.49668468  0.20714173  0.79476231    -0.24000
H1323       H  0.39814064  0.18542159  0.71315095     0.05200
H1324       H  0.41944328  0.21825658  0.70092050     0.08400
H1325       H  0.40277786  0.20964233  0.74311786     0.08400
H1326       H  0.50911346  0.20470860  0.77667038     0.08400
H1327       H  0.48832196  0.19198563  0.81525871     0.08400
H1328       H  0.50920387  0.22565170  0.80850801     0.05200
C1329       C  0.70767895  0.21554073  0.75568063    -0.20600
C1330       C  0.70807579  0.19412104  0.74740222    -0.07200
C1331       C  0.73125220  0.19726699  0.73654841     0.13700
C1332       C  0.75356266  0.22188516  0.73492820    -0.20700
C1333       C  0.75316471  0.24328433  0.74360240    -0.07200
C1334       C  0.72985259  0.24006581  0.75408829     0.13700
C1335       C  0.72808123  0.26208221  0.76479284    -0.24000
H1336       H  0.68987273  0.21307619  0.76401681     0.15000
H1337       H  0.77140590  0.22445129  0.72658682     0.15000
C1338       C  0.73259214  0.17504060  0.72580398    -0.24000
H1339       H  0.70853626  0.25560688  0.77406394     0.05200
H1340       H  0.73251634  0.27487021  0.74184551     0.08400
H1341       H  0.74166052  0.27280863  0.78682349     0.08400
H1342       H  0.71882050  0.16438081  0.70392580     0.08400
H1343       H  0.72800239  0.16223307  0.74877219     0.08400
H1344       H  0.75204807  0.18130781  0.71639301     0.05200
C1345       C  0.57305305  0.14509790  0.75845302    -0.20600
C1346       C  0.57098806  0.12178203  0.75670989    -0.07200
C1347       C  0.54640235  0.09889325  0.75397142     0.13700
C1348       C  0.52471118  0.10003819  0.75241626    -0.20700
C1349       C  0.52676928  0.12335554  0.75381666    -0.07200
C1350       C  0.55134064  0.14623156  0.75705571     0.13700
C1351       C  0.55516194  0.17197654  0.75944175    -0.24000
H1352       H  0.59170144  0.16254612  0.76063183     0.15000
H1353       H  0.50602549  0.08253440  0.75013073     0.15000
C1354       C  0.54252624  0.07308819  0.75328134    -0.24000
H1355       H  0.57570135  0.18755687  0.76257404     0.05200
H1356       H  0.54472568  0.17258571  0.78275327     0.08400
H1357       H  0.54811725  0.17582918  0.73485980     0.08400
H1358       H  0.55095335  0.07051274  0.77748284     0.08400
H1359       H  0.55161989  0.07124837  0.72931955     0.08400
H1360       H  0.52187882  0.05740196  0.75251638     0.05200
C1361       C  0.44108478  0.83565495  0.74802444    -0.20600
C1362       C  0.43923332  0.81283091  0.75499149    -0.07200
C1363       C  0.41473686  0.79015981  0.76007135     0.13700
C1364       C  0.39293487  0.79101569  0.75789026    -0.20700
C1365       C  0.39471566  0.81378333  0.75092265    -0.07200
C1366       C  0.41923879  0.83653088  0.74611572     0.13700
C1367       C  0.42286746  0.86190217  0.73945385    -0.24000
H1368       H  0.45976651  0.85300486  0.74416826     0.15000
H1369       H  0.37421997  0.77358051  0.76186323     0.15000
C1370       C  0.41112049  0.76497685  0.76832929    -0.24000
H1371       H  0.44347786  0.87751841  0.73676930     0.05200
H1372       H  0.41503011  0.86682499  0.76199125     0.08400
H1373       H  0.41311104  0.86118195  0.71451494     0.08400
H1374       H  0.42156295  0.76657292  0.79299800     0.08400
H1375       H  0.41819704  0.75908679  0.74596494     0.08400
H1376       H  0.39058633  0.74958510  0.77240697     0.05200
C1377       C  0.20917796  0.71797652  0.75089267    -0.20600
C1378       C  0.20861526  0.69605245  0.74223328    -0.07200
C1379       C  0.23171320  0.69838584  0.73269433     0.13700
C1380       C  0.25467060  0.72238334  0.73341251    -0.20700
C1381       C  0.25542929  0.74419551  0.74338461    -0.07200
C1382       C  0.23224573  0.74205569  0.75151440     0.13700
C1383       C  0.23140429  0.76478935  0.76090254    -0.24000
H1384       H  0.19148508  0.71626224  0.75775434     0.15000
H1385       H  0.27229281  0.72397667  0.72661612     0.15000
C1386       C  0.23277036  0.67596306  0.72178319    -0.24000
H1387       H  0.21148007  0.75942707  0.76552260     0.05200
H1388       H  0.23948709  0.77876745  0.73886460     0.08400
H1389       H  0.24246070  0.77375624  0.78557993     0.08400
H1390       H  0.22012377  0.66632616  0.69851554     0.08400
H1391       H  0.22680843  0.66240914  0.74417078     0.08400
H1392       H  0.25243680  0.68181654  0.71410746     0.05200
C1393       C  0.32325546  0.44298427  0.62820080    -0.20600
C1394       C  0.32299575  0.42887554  0.65723792    -0.07200
C1395       C  0.33167055  0.41254352  0.65210709     0.13700
C1396       C  0.34262935  0.41284166  0.61938153    -0.20700
C1397       C  0.34545875  0.42922457  0.59198448    -0.07200
C1398       C  0.33438505  0.44341430  0.59578853     0.13700
C1399       C  0.33410799  0.45895557  0.56565626    -0.24000
H1400       H  0.31579551  0.45480504  0.63127522     0.15000
H1401       H  0.35050297  0.40137436  0.61594738     0.15000
C1402       C  0.33030205  0.39538349  0.68103716    -0.24000
H1403       H  0.32318285  0.46747791  0.57251117     0.05200
H1404       H  0.32487563  0.44660165  0.54209833     0.08400
H1405       H  0.35393184  0.47478225  0.55891111     0.08400
H1406       H  0.31018488  0.38266215  0.69027702     0.08400
H1407       H  0.34288542  0.40692875  0.70347472     0.08400
H1408       H  0.33680784  0.38317594  0.67167029     0.05200
C1409       C  0.31955554  0.44038305  0.88515446    -0.20600
C1410       C  0.32224878  0.42896219  0.85507929    -0.07200
C1411       C  0.33473395  0.41601533  0.85860026     0.13700
C1412       C  0.34554609  0.41629368  0.89140786    -0.20700
C1413       C  0.34485313  0.42970007  0.92056325    -0.07200
C1414       C  0.33083476  0.44112453  0.91773082     0.13700
C1415       C  0.32779912  0.45429550  0.94870804    -0.24000
H1416       H  0.30959784  0.44993775  0.88270025     0.15000
H1417       H  0.35606963  0.40731348  0.89362951     0.15000
C1418       C  0.33835716  0.40337580  0.82748325    -0.24000
H1419       H  0.31477091  0.46053415  0.94233126     0.05200
H1420       H  0.34664422  0.47150990  0.95617859     0.08400
H1421       H  0.31955458  0.44108054  0.97159317     0.08400
H1422       H  0.34944795  0.41762397  0.80641032     0.08400
H1423       H  0.31937850  0.38799097  0.81696690     0.08400
H1424       H  0.34906192  0.39471156  0.83495367     0.05200
C1425       C  0.11575212  0.51382724  0.73606736    -0.20600
C1426       C  0.13715806  0.51426162  0.74826619    -0.07200
C1427       C  0.15854078  0.53712755  0.76197875     0.13700
C1428       C  0.15826952  0.55920245  0.76187958    -0.20700
C1429       C  0.13692090  0.55884373  0.74923440    -0.07200
C1430       C  0.11522033  0.53569499  0.73657574     0.13700
C1431       C  0.09136199  0.53355872  0.72323699    -0.24000
H1432       H  0.09937844  0.49632562  0.72596614     0.15000
H1433       H  0.17460553  0.57662259  0.77204485     0.15000
C1434       C  0.18131873  0.53838298  0.77797652    -0.24000
H1435       H  0.07663380  0.51402645  0.71394551     0.05200
H1436       H  0.09620856  0.54668771  0.70056307     0.08400
H1437       H  0.08259115  0.53814777  0.74489136     0.08400
H1438       H  0.19133446  0.53444280  0.75743729     0.08400
H1439       H  0.17481809  0.52425438  0.79974143     0.08400
H1440       H  0.19547599  0.55744844  0.78924942     0.05200
C1441       C  0.24164625  0.46311257  0.76632519    -0.20600
C1442       C  0.24121842  0.44207300  0.75343868    -0.07200
C1443       C  0.21804540  0.42098804  0.73976079     0.13700
C1444       C  0.19586025  0.42157287  0.73936675    -0.20700
C1445       C  0.19651124  0.44296321  0.75163283    -0.07200
C1446       C  0.21980520  0.46396437  0.76552205     0.13700
C1447       C  0.22212418  0.48744713  0.78006389    -0.24000
H1448       H  0.25928759  0.47913216  0.77695195     0.15000
H1449       H  0.17823451  0.40565134  0.72860788     0.15000
C1450       C  0.21679711  0.39837651  0.72415866    -0.24000
H1451       H  0.24133502  0.50102725  0.79178232     0.05200
H1452       H  0.20765974  0.48202254  0.80121295     0.08400
H1453       H  0.21940346  0.49770764  0.75852215     0.08400
H1454       H  0.22106448  0.38875713  0.74488971     0.08400
H1455       H  0.23094335  0.40471974  0.70231821     0.08400
H1456       H  0.19749642  0.38419868  0.71319299     0.05200
C1457       C  0.48798293  0.73014754  0.74438605    -0.20600
C1458       C  0.50953892  0.75183609  0.75943541    -0.07200
C1459       C  0.52982342  0.75021831  0.77238072     0.13700
C1460       C  0.52793808  0.72698617  0.76962775    -0.20700
C1461       C  0.50618473  0.70524643  0.75484126    -0.07200
C1462       C  0.48597534  0.70701559  0.74177866     0.13700
C1463       C  0.46235238  0.68492659  0.72422453    -0.24000
H1464       H  0.47238979  0.73128884  0.73424978     0.15000
H1465       H  0.54342739  0.72564564  0.77987007     0.15000
C1466       C  0.55300787  0.77249785  0.79012398    -0.24000
H1467       H  0.44956242  0.69045521  0.71357171     0.05200
H1468       H  0.45095317  0.66945043  0.74367420     0.08400
H1469       H  0.46803964  0.67777471  0.70171125     0.08400
H1470       H  0.54690558  0.77884518  0.81312638     0.08400
H1471       H  0.56368069  0.78839631  0.77103349     0.08400
H1472       H  0.56640427  0.76748947  0.79997617     0.05200
C1473       C  0.50339620  0.62352557  0.88139642    -0.20600
C1474       C  0.51774049  0.62367865  0.85266699    -0.07200
C1475       C  0.53345245  0.61427071  0.85774298     0.13700
C1476       C  0.53307134  0.60355894  0.89055368    -0.20700
C1477       C  0.51710833  0.60155143  0.91823578    -0.07200
C1478       C  0.50282225  0.61259462  0.91404282     0.13700
C1479       C  0.48695101  0.61303866  0.94368734    -0.24000
H1480       H  0.49172151  0.63115414  0.87789359     0.15000
H1481       H  0.54428750  0.59538732  0.89390851     0.15000
C1482       C  0.54959152  0.61409156  0.82835206    -0.24000
H1483       H  0.47875148  0.62418752  0.93646463     0.05200
H1484       H  0.49911844  0.62194536  0.96757637     0.08400
H1485       H  0.47063499  0.59343196  0.94996782     0.08400
H1486       H  0.56377482  0.63386333  0.81941149     0.08400
H1487       H  0.53713869  0.60247706  0.80583969     0.08400
H1488       H  0.56040982  0.60579627  0.83706694     0.05200
C1489       C  0.53578093  0.61796268  0.64855255    -0.20600
C1490       C  0.51787679  0.62466902  0.65240401    -0.07200
C1491       C  0.50236771  0.62173867  0.62281668     0.13700
C1492       C  0.50399909  0.61070870  0.59163560    -0.20700
C1493       C  0.52040454  0.60227466  0.58886349    -0.07200
C1494       C  0.53723498  0.60678687  0.61715167     0.13700
C1495       C  0.55557843  0.59847225  0.61522135    -0.24000
H1496       H  0.54788022  0.62032163  0.67081853     0.15000
H1497       H  0.49144862  0.60758917  0.56955802     0.15000
C1498       C  0.48311213  0.62899476  0.62381676    -0.24000
H1499       H  0.56674678  0.60276702  0.64011487     0.05200
H1500       H  0.56939543  0.60860287  0.59328608     0.08400
H1501       H  0.54478070  0.57762299  0.61060135     0.08400
H1502       H  0.49287501  0.64941296  0.63088957     0.08400
H1503       H  0.46775554  0.61692959  0.64323056     0.08400
H1504       H  0.47361432  0.62618853  0.59776512     0.05200
C1505       C  0.40791294  0.56610000  0.76294291    -0.20600
C1506       C  0.42943585  0.56675706  0.75073543    -0.07200
C1507       C  0.42637761  0.54388079  0.73923625     0.13700
C1508       C  0.40204241  0.52109001  0.74088307    -0.20700
C1509       C  0.38056547  0.52030704  0.75370711    -0.07200
C1510       C  0.38358910  0.54327592  0.76479393     0.13700
C1511       C  0.36162200  0.54411401  0.77919402    -0.24000
H1512       H  0.41019127  0.58360461  0.77173795     0.15000
H1513       H  0.39982975  0.50362691  0.73201722     0.15000
C1514       C  0.44838098  0.54314312  0.72468992    -0.24000
H1515       H  0.36781950  0.56366584  0.78718640     0.05200
H1516       H  0.35351572  0.53178013  0.80297036     0.08400
H1517       H  0.34654048  0.53767383  0.75863334     0.08400
H1518       H  0.46307230  0.54868473  0.74557316     0.08400
H1519       H  0.45704709  0.55624007  0.70172735     0.08400
H1520       H  0.44204765  0.52378812  0.71547287     0.05200
C1521       C  0.06117599  0.41550000  0.88232786    -0.20600
C1522       C  0.07714682  0.43081204  0.91024671    -0.07200
C1523       C  0.10400528  0.44319300  0.90681447     0.13700
C1524       C  0.11420531  0.44189486  0.87445677    -0.20700
C1525       C  0.09837121  0.42838591  0.84534169    -0.07200
C1526       C  0.07137799  0.41418004  0.84985408     0.13700
C1527       C  0.05312600  0.39853041  0.82033391    -0.24000
H1528       H  0.04053471  0.40548708  0.88530139     0.15000
H1529       H  0.13485933  0.45227324  0.87156754     0.15000
C1530       C  0.12207174  0.45747017  0.93721276    -0.24000
H1531       H  0.03277364  0.38862393  0.82877238     0.05200
H1532       H  0.05648489  0.38378958  0.81178960     0.08400
H1533       H  0.05592884  0.41099602  0.79762288     0.08400
H1534       H  0.11634671  0.44473251  0.96056790     0.08400
H1535       H  0.12180310  0.47438261  0.94415312     0.08400
H1536       H  0.14218386  0.46433158  0.93050477     0.05200
C1537       C  0.07348056  0.41532388  0.64502919    -0.20600
C1538       C  0.10035260  0.42835388  0.64630945    -0.07200
C1539       C  0.11461704  0.43937841  0.61479675     0.13700
C1540       C  0.10180747  0.43872655  0.58386720    -0.20700
C1541       C  0.07519707  0.42742073  0.58343721    -0.07200
C1542       C  0.06071199  0.41480992  0.61409295     0.13700
C1543       C  0.03205054  0.40220977  0.61517375    -0.24000
H1544       H  0.06245156  0.40678055  0.66901871     0.15000
H1545       H  0.11279903  0.44794587  0.56010231     0.15000
C1546       C  0.14330672  0.45210882  0.61334381    -0.24000
H1547       H  0.02400123  0.39410882  0.64169391     0.05200
H1548       H  0.02263372  0.38639294  0.59570404     0.08400
H1549       H  0.02729931  0.41633162  0.60890973     0.08400
H1550       H  0.14836179  0.43885999  0.62326001     0.08400
H1551       H  0.15314036  0.46976736  0.62944224     0.08400
H1552       H  0.15073040  0.45761241  0.58588676     0.05200
C1553       C  0.06457330  0.58199191  0.62040239    -0.20600
C1554       C  0.07848099  0.59184037  0.58883010    -0.07200
C1555       C  0.10400207  0.61360109  0.59026218     0.13700
C1556       C  0.11548396  0.62347013  0.62339590    -0.20700
C1557       C  0.10200297  0.61254687  0.65499032    -0.07200
C1558       C  0.07588150  0.59212763  0.65343736     0.13700
C1559       C  0.06012535  0.57985280  0.68637212    -0.24000
H1560       H  0.04487317  0.56565979  0.61930676     0.15000
H1561       H  0.13540649  0.63927468  0.62469305     0.15000
C1562       C  0.11972951  0.62589021  0.55733477    -0.24000
H1563       H  0.04023010  0.56385109  0.67999675     0.05200
H1564       H  0.05884252  0.59406525  0.70180688     0.08400
H1565       H  0.06900740  0.57212279  0.70283072     0.08400
H1566       H  0.11035172  0.63290563  0.54048728     0.08400
H1567       H  0.12170244  0.61195283  0.54230862     0.08400
H1568       H  0.13934273  0.64243619  0.56368766     0.05200
C1569       C  0.12660923  0.61899352  0.87738827    -0.20600
C1570       C  0.11235201  0.62004235  0.84950333    -0.07200
C1571       C  0.08701673  0.61320368  0.85603501     0.13700
C1572       C  0.07584553  0.60281297  0.88902370    -0.20700
C1573       C  0.08912888  0.59871977  0.91519015    -0.07200
C1574       C  0.11531668  0.60822767  0.91005598     0.13700
C1575       C  0.13145802  0.60679116  0.93843998    -0.24000
H1576       H  0.14638442  0.62518514  0.87294458     0.15000
H1577       H  0.05590341  0.59617108  0.89344967     0.15000
C1578       C  0.07110894  0.61546611  0.82816902    -0.24000
H1579       H  0.15199587  0.61722943  0.93071436     0.05200
H1580       H  0.12489542  0.58671988  0.94320591     0.08400
H1581       H  0.13022201  0.61542867  0.96331006     0.08400
H1582       H  0.06757130  0.60270025  0.80553280     0.08400
H1583       H  0.08120408  0.63547732  0.81891702     0.08400
H1584       H  0.05210025  0.60996392  0.83858086     0.05200
C1585       C  0.85016186  0.50045544  0.86049801    -0.20600
C1586       C  0.86642587  0.51379433  0.83171307    -0.07200
C1587       C  0.89330244  0.52684621  0.83672714     0.13700
C1588       C  0.90286948  0.52436072  0.86912620    -0.20700
C1589       C  0.88643064  0.50918504  0.89677148    -0.07200
C1590       C  0.85972076  0.49800026  0.89286644     0.13700
C1591       C  0.84105373  0.48349976  0.92251771    -0.24000
H1592       H  0.82962322  0.49097886  0.85723394     0.15000
H1593       H  0.92339737  0.53350079  0.87227182     0.15000
C1594       C  0.91208899  0.54256732  0.80780707    -0.24000
H1595       H  0.82126421  0.47764958  0.91548489     0.05200
H1596       H  0.84694412  0.49567989  0.94650595     0.08400
H1597       H  0.84035579  0.46592560  0.92851951     0.08400
H1598       H  0.90961685  0.55800937  0.79981533     0.08400
H1599       H  0.90899261  0.53035502  0.78463630     0.08400
H1600       H  0.93228296  0.55159430  0.81662406     0.05200
C1601       C  0.90293895  0.52780183  0.59440185    -0.20600
C1602       C  0.88656933  0.51180828  0.56726588    -0.07200
C1603       C  0.85980974  0.49960812  0.57104663     0.13700
C1604       C  0.84997511  0.50174307  0.60318365    -0.20700
C1605       C  0.86615302  0.51560178  0.63186800    -0.07200
C1606       C  0.89309872  0.52972043  0.62685084     0.13700
C1607       C  0.91164952  0.54564220  0.65595947    -0.24000
H1608       H  0.92348100  0.53752755  0.59106530     0.15000
H1609       H  0.82938553  0.49146693  0.60645075     0.15000
C1610       C  0.84150319  0.48438431  0.54128494    -0.24000
H1611       H  0.93191007  0.55535682  0.64719185     0.05200
H1612       H  0.90898754  0.53340634  0.67891016     0.08400
H1613       H  0.90845089  0.56053443  0.66428520     0.08400
H1614       H  0.84184517  0.46736307  0.53546284     0.08400
H1615       H  0.84698264  0.49641362  0.51720054     0.08400
H1616       H  0.82143146  0.47762332  0.54805800     0.05200
C1617       C  0.89364911  0.35133418  0.87365449    -0.20600
C1618       C  0.87878170  0.34545119  0.90436458    -0.07200
C1619       C  0.85176016  0.32818716  0.90193588     0.13700
C1620       C  0.84044501  0.31901300  0.86850918    -0.20700
C1621       C  0.85529835  0.32655284  0.83754126    -0.07200
C1622       C  0.88237577  0.34228442  0.84033452     0.13700
C1623       C  0.89966489  0.35094823  0.80835632    -0.24000
H1624       H  0.91436187  0.36409325  0.87542518     0.15000
H1625       H  0.81973402  0.30658190  0.86640321     0.15000
C1626       C  0.83451299  0.31988040  0.93391501    -0.24000
H1627       H  0.92025450  0.36360729  0.81570365     0.05200
H1628       H  0.89515830  0.36179947  0.79018874     0.08400
H1629       H  0.89711749  0.33421977  0.79440733     0.08400
H1630       H  0.83584147  0.33653788  0.94620669     0.08400
H1631       H  0.84012497  0.31063133  0.95341445     0.08400
H1632       H  0.81406879  0.30592438  0.92686532     0.05200
C1633       C  0.89140873  0.33877730  0.60716073    -0.20600
C1634       C  0.87722905  0.33813474  0.57795223    -0.07200
C1635       C  0.85017976  0.32395965  0.57996330     0.13700
C1636       C  0.83834131  0.31423402  0.61274830    -0.20700
C1637       C  0.85287996  0.31813263  0.64333055    -0.07200
C1638       C  0.87956296  0.32890741  0.64002535     0.13700
C1639       C  0.89603126  0.33159017  0.67111315    -0.24000
H1640       H  0.91208124  0.34881771  0.60504699     0.15000
H1641       H  0.81774999  0.30483958  0.61484307     0.15000
C1642       C  0.83369236  0.31913925  0.54783286    -0.24000
H1643       H  0.91625543  0.33987986  0.66317420     0.05200
H1644       H  0.88859005  0.31257793  0.68280839     0.08400
H1645       H  0.89610163  0.34436777  0.69135939     0.08400
H1646       H  0.83882159  0.31073031  0.52635727     0.08400
H1647       H  0.83629081  0.33706570  0.53844245     0.08400
H1648       H  0.81298274  0.30563211  0.55376689     0.05200
C1649       C  0.62439941  0.09325619  0.91733825    -0.20600
C1650       C  0.60787967  0.06657917  0.91698795    -0.07200
C1651       C  0.60461788  0.05328721  0.88509281     0.13700
C1652       C  0.61642492  0.06710529  0.85414116    -0.20700
C1653       C  0.63072428  0.09379836  0.85376068    -0.07200
C1654       C  0.63567932  0.10709889  0.88613421     0.13700
C1655       C  0.65238075  0.13576303  0.88825991    -0.24000
H1656       H  0.62748103  0.10347837  0.94183014     0.15000
H1657       H  0.61298694  0.05685570  0.82956342     0.15000
C1658       C  0.58835394  0.02462070  0.88285093    -0.24000
H1659       H  0.65562207  0.14258323  0.91608527     0.05200
H1660       H  0.64308121  0.14409647  0.87434670     0.08400
H1661       H  0.67140734  0.14289551  0.87629241     0.08400
H1662       H  0.56792478  0.01734230  0.88779829     0.08400
H1663       H  0.59514329  0.01650801  0.90248723     0.08400
H1664       H  0.58935505  0.01772309  0.85625217     0.05200
C1665       C  0.62745452  0.09494822  0.59352523    -0.20600
C1666       C  0.61291383  0.06831489  0.59295462    -0.07200
C1667       C  0.61025199  0.05471427  0.62413364     0.13700
C1668       C  0.62055871  0.06814581  0.65585654    -0.20700
C1669       C  0.63281737  0.09467619  0.65718756    -0.07200
C1670       C  0.63754492  0.10841038  0.62525457     0.13700
C1671       C  0.65266894  0.13709563  0.62420456    -0.24000
H1672       H  0.62978414  0.10520725  0.56925645     0.15000
H1673       H  0.61724126  0.05763057  0.68017825     0.15000
C1674       C  0.59476974  0.02602899  0.62477893    -0.24000
H1675       H  0.65630952  0.14436481  0.59659165     0.05200
H1676       H  0.67155383  0.14517161  0.63732238     0.08400
H1677       H  0.64191841  0.14406378  0.63752118     0.08400
H1678       H  0.60356398  0.01900390  0.60683430     0.08400
H1679       H  0.57477363  0.01829946  0.61613729     0.08400
H1680       H  0.59398118  0.01856937  0.65172714     0.05200
C1681       C  0.42890560  0.05083987  0.61389262    -0.20600
C1682       C  0.44702619  0.06648196  0.58802648    -0.07200
C1683       C  0.46164855  0.09315165  0.59297224     0.13700
C1684       C  0.45917083  0.10329012  0.62458262    -0.20700
C1685       C  0.44278029  0.08761034  0.65198436    -0.07200
C1686       C  0.42675771  0.06097576  0.64597059     0.13700
C1687       C  0.40815701  0.04292626  0.67354281    -0.24000
H1688       H  0.41730842  0.03044736  0.60979594     0.15000
H1689       H  0.47106976  0.12369285  0.62846719     0.15000
C1690       C  0.47987592  0.11118683  0.56501794    -0.24000
H1691       H  0.39700309  0.02291745  0.66404139     0.05200
H1692       H  0.39430565  0.04805548  0.68019602     0.08400
H1693       H  0.41872396  0.04377361  0.69771446     0.08400
H1694       H  0.46949746  0.10749589  0.53952442     0.08400
H1695       H  0.49599480  0.10877721  0.56154067     0.08400
H1696       H  0.48831612  0.13137892  0.57232499     0.05200
C1697       C  0.43068079  0.04918262  0.88697427    -0.20600
C1698       C  0.44479177  0.06516972  0.91559454    -0.07200
C1699       C  0.45560091  0.09159468  0.91258680     0.13700
C1700       C  0.45319081  0.10139752  0.88054808    -0.20700
C1701       C  0.44090562  0.08573063  0.85091448    -0.07200
C1702       C  0.42901423  0.05912077  0.85446724     0.13700
C1703       C  0.41607838  0.04120946  0.82365138    -0.24000
H1704       H  0.42224446  0.02894266  0.88930407     0.15000
H1705       H  0.46213884  0.12173235  0.87809579     0.15000
C1706       C  0.46993003  0.10973427  0.94278338    -0.24000
H1707       H  0.40829332  0.02117232  0.83110832     0.05200
H1708       H  0.43010832  0.04646875  0.80193547     0.08400
H1709       H  0.39984246  0.04211064  0.81401204     0.08400
H1710       H  0.48781595  0.11066917  0.94851940     0.08400
H1711       H  0.45761311  0.10336038  0.96673737     0.08400
H1712       H  0.47555175  0.12936711  0.93644561     0.05200
C1713       C  0.35381244  0.87520149  0.89185310    -0.20600
C1714       C  0.36194568  0.86426256  0.91630192    -0.07200
C1715       C  0.35772328  0.84026132  0.90845579     0.13700
C1716       C  0.34643550  0.82851514  0.87612214    -0.20700
C1717       C  0.33983081  0.84020076  0.85071940    -0.07200
C1718       C  0.34302914  0.86366737  0.85906320     0.13700
C1719       C  0.33576648  0.87706667  0.83355919    -0.24000
H1720       H  0.35680893  0.89349718  0.89783770     0.15000
H1721       H  0.34385183  0.81047940  0.87006608     0.15000
C1722       C  0.36546925  0.82688942  0.93328869    -0.24000
H1723       H  0.33873996  0.89466762  0.84522707     0.05200
H1724       H  0.31516718  0.86432836  0.82637558     0.08400
H1725       H  0.34780816  0.88273534  0.80940396     0.08400
H1726       H  0.35597928  0.82382470  0.95934476     0.08400
H1727       H  0.38664003  0.83833909  0.93658644     0.08400
H1728       H  0.35979427  0.80795515  0.92305762     0.05200
C1729       C  0.36544706  0.88756910  0.62289910    -0.20600
C1730       C  0.35966038  0.87334319  0.59164663    -0.07200
C1731       C  0.34169714  0.84669022  0.59263809     0.13700
C1732       C  0.33103144  0.83485707  0.62516632    -0.20700
C1733       C  0.33836109  0.84881487  0.65685882    -0.07200
C1734       C  0.35514519  0.87567249  0.65559983     0.13700
C1735       C  0.36377815  0.89185930  0.68859666    -0.24000
H1736       H  0.37911235  0.90798503  0.62196121     0.15000
H1737       H  0.31808971  0.81434124  0.62611031     0.15000
C1738       C  0.33522757  0.83026530  0.56018776    -0.24000
H1739       H  0.37705052  0.91240676  0.68244580     0.05200
H1740       H  0.37409192  0.88642422  0.70641935     0.08400
H1741       H  0.34688233  0.88934498  0.70248852     0.08400
H1742       H  0.35296585  0.83287696  0.54912969     0.08400
H1743       H  0.32600083  0.83544499  0.53996106     0.08400
H1744       H  0.32171922  0.80973473  0.56628639     0.05200
C1745       C  0.53888232  0.88036140  0.90544038    -0.20600
C1746       C  0.51761543  0.86682052  0.92815185    -0.07200
C1747       C  0.49822064  0.84123180  0.91965268     0.13700
C1748       C  0.49973315  0.83073278  0.88771440    -0.20700
C1749       C  0.51989124  0.84500141  0.86351299    -0.07200
C1750       C  0.54024646  0.86988504  0.87326294     0.13700
C1751       C  0.56326519  0.88587470  0.84983059    -0.24000
H1752       H  0.55406713  0.89963096  0.91213771     0.15000
H1753       H  0.48439036  0.81152961  0.88100685     0.15000
C1754       C  0.47559809  0.82469756  0.94360617    -0.24000
H1755       H  0.57775977  0.90430231  0.86246107     0.05200
H1756       H  0.55732073  0.89022759  0.82463128     0.08400
H1757       H  0.57262127  0.87556948  0.84432189     0.08400
H1758       H  0.46343956  0.83239835  0.94543132     0.08400
H1759       H  0.48246607  0.82380380  0.97035011     0.08400
H1760       H  0.46322604  0.80490082  0.93351355     0.05200
C1761       C  0.51629650  0.84809287  0.60031669    -0.20600
C1762       C  0.52779910  0.87448677  0.59996009    -0.07200
C1763       C  0.54135792  0.88885163  0.63035637     0.13700
C1764       C  0.54121661  0.87613214  0.66113805    -0.20700
C1765       C  0.52761613  0.84941994  0.66246178    -0.07200
C1766       C  0.51597169  0.83534622  0.63096188     0.13700
C1767       C  0.50259927  0.80681360  0.62925102    -0.24000
H1768       H  0.50650361  0.83715118  0.57671097     0.15000
H1769       H  0.55034940  0.88703371  0.68496478     0.15000
C1770       C  0.55459197  0.91733860  0.63137500    -0.24000
H1771       H  0.49699943  0.79956503  0.60172446     0.05200
H1772       H  0.48472276  0.79730761  0.64513656     0.08400
H1773       H  0.51560125  0.80134220  0.63915116     0.08400
H1774       H  0.54049067  0.92239861  0.62613183     0.08400
H1775       H  0.56999485  0.92630522  0.61112593     0.08400
H1776       H  0.56356116  0.92537385  0.65756613     0.05200
loop_ 
_geom_bond_atom_site_label_1 
_geom_bond_atom_site_label_2 
_geom_bond_distance 
_geom_bond_site_symmetry_2 
_ccdc_geom_bond_type 
In1          O12   2.261       .  S
In1           O6   2.239       .  S
In1           O8   2.251       .  S
In1          O13   2.247       .  S
In1         O891   2.241       .  S
In1         O892   2.270       .  S
In1         O897   2.224       .  S
In1         O898   2.264       .  S
C2           O10   1.261       .  A
C2          O896   1.259   1_554  A
C2           C24   1.468       .  S
O3         In889   2.241       .  S
O3           C11   1.259       .  A
O4         In889   2.269       .  S
O4           C11   1.260       .  A
C5           O12   1.263       .  A
C5            O6   1.260       .  A
C5          C858   1.493       .  S
C7           O13   1.264       .  A
C7          O897   1.260       .  A
C7          C938   1.460       .  S
O8          C890   1.259       .  A
O9         In889   2.226       .  S
O9          C895   1.260       .  A
O10        In889   2.261       .  S
C11         C874   1.486       .  S
In14         O16   2.256   1_554  S
In14         O17   2.267       .  S
In14         O21   2.235       .  S
In14         O22   2.235   1_554  S
In14         O23   2.235       .  S
In14        O913   2.253   1_554  S
In14        O907   2.219   1_554  S
In14        O914   2.257       .  S
C15          O21   1.262       .  A
C15          O23   1.263       .  A
C15         C842   1.477       .  S
O16          C24   1.257   1_556  A
O17          C24   1.257       .  A
C18          O25   1.263       .  A
C18          O19   1.258       .  A
C18         C826   1.484       .  S
O19        In902   2.215       .  S
C20          O22   1.256       .  A
C20         O914   1.256   1_556  A
C20         C921   1.456       .  S
O25        In902   2.253       .  S
O26        In902   2.253       .  S
O26         C908   1.256       .  A
In27         O38   2.260       .  S
In27         O32   2.243       .  S
In27         O34   2.262       .  S
In27         O39   2.230   1_545  S
In27        O917   2.243       .  S
In27        O918   2.264       .  S
In27        O923   2.242   1_545  S
In27        O924   2.254       .  S
C28          O36   1.260       .  A
C28         O922   1.260   1_554  A
C28          C46   1.471       .  S
O29        In915   2.245       .  S
O29          C37   1.262       .  A
O30        In915   2.265       .  S
O30          C37   1.262       .  A
C31          O38   1.260       .  A
C31          O32   1.260       .  A
C31         C810   1.486       .  S
C33          O39   1.259       .  A
C33         O923   1.261       .  A
C33         C908   1.457       .  S
O34         C916   1.260       .  A
O35        In915   2.247   1_565  S
O35         C921   1.262   1_554  A
O36        In915   2.258       .  S
C37         C794   1.488       .  S
In40         O42   2.239   1_545  S
In40         O51   2.247       .  S
In40         O45   2.223       .  S
In40         O52   2.270   1_554  S
In40        O931   2.258   1_544  S
In40        O935   2.241   1_554  S
In40        O936   2.263       .  S
In40        O937   2.226   1_554  S
C41          O47   1.262       .  A
C41          O49   1.261       .  A
C41         C762   1.480       .  S
O42          C50   1.258       .  A
O43        In928   2.259   1_565  S
O43         C938   1.258       .  A
C44          O51   1.260       .  A
C44          O45   1.259       .  A
C44         C778   1.468       .  S
C46          O52   1.257   1_554  A
C46         O936   1.256       .  A
O47        In928   2.241       .  S
O48        In928   2.260       .  S
O48         C934   1.257       .  A
O49        In928   2.223       .  S
C50         O931   1.258   1_554  A
C50         C895   1.460       .  S
In53         O55   2.248       .  S
In53         O64   2.240       .  S
In53         O58   2.240       .  S
In53         O65   2.262       .  S
In53        O944   2.238       .  S
In53        O948   2.256       .  S
In53        O949   2.257       .  S
In53        O950   2.213       .  S
C54          O60   1.261       .  A
C54          O62   1.258       .  A
C54         C746   1.471       .  S
O55          C63   1.260       .  A
O56        In941   2.239   1_554  S
O56         C951   1.260       .  A
C57          O64   1.262       .  A
C57          O58   1.257       .  A
C57         C730   1.485       .  S
C59          O65   1.259       .  A
C59         O949   1.258       .  A
C59          C67   1.469       .  S
O60        In941   2.255   1_554  S
O61        In941   2.257       .  S
O61         C947   1.258       .  A
O62        In941   2.211   1_554  S
C63         O944   1.260       .  A
C63         C986   1.461       .  S
In66         O77   2.249   1_556  S
In66         O71   2.229   1_556  S
In66         O73   2.262   1_556  S
In66         O78   2.245   1_556  S
In66        O956   2.254       .  S
In66        O957   2.259       .  S
In66        O962   2.231       .  S
In66        O963   2.258       .  S
C67          O75   1.259       .  A
C67         O961   1.258       .  A
O68        In954   2.256       .  S
O68          C76   1.260       .  A
O69        In954   2.256       .  S
O69          C76   1.261       .  A
C70          O77   1.263       .  A
C70          O71   1.262       .  A
C70         C714   1.478       .  S
C72          O78   1.260   1_556  A
C72         O962   1.259       .  A
C72         C977   1.457       .  S
O73         C955   1.258   1_554  A
O74        In954   2.231       .  S
O74         C960   1.259       .  A
O75        In954   2.258       .  S
C76         C701   1.491       .  S
In79         O81   2.238       .  S
In79         O90   2.235       .  S
In79         O84   2.219       .  S
In79         O87   2.263       .  S
In79         O91   2.260       .  S
In79        O970   2.259       .  S
In79        O974   2.242       .  S
In79        O976   2.234       .  S
C80          O86   1.261       .  A
C80          O88   1.263       .  A
C80         C666   1.482       .  S
O81          C89   1.255   1_455  A
O82        In967   2.257   1_554  S
O82         C977   1.257   1_454  A
C83          O90   1.262       .  A
C83          O84   1.261       .  A
C83         C685   1.474       .  S
C85          O87   1.256       .  A
C85          O91   1.257       .  A
C85          C93   1.466       .  S
O86        In967   2.241   1_554  S
O88        In967   2.234   1_554  S
C89         O970   1.257   1_655  A
C89         C960   1.458       .  S
In92        O103   2.256   1_556  S
In92         O97   2.237   1_556  S
In92         O99   2.245   1_556  S
In92        O104   2.237   1_556  S
In92        O982   2.242       .  S
In92        O983   2.257       .  S
In92        O988   2.246       .  S
In92        O989   2.256       .  S
C93         O101   1.262       .  A
C93         O987   1.260       .  A
O94        In980   2.242       .  S
O94         C102   1.259       .  A
O95        In980   2.258       .  S
O95         C102   1.260       .  A
C96         O103   1.259       .  A
C96          O97   1.257       .  A
C96         C653   1.478       .  S
C98         O104   1.259   1_655  A
C98         O988   1.262   1_654  A
C98         C951   1.460       .  S
O99         C981   1.260   1_554  A
O100       In980   2.249       .  S
O100        C986   1.262   1_455  A
O101       In980   2.256       .  S
C102        C634   1.485       .  S
In105       O107   2.219       .  S
In105       O108   2.271       .  S
In105       O116   2.274       .  S
In105       O110   2.204       .  S
In105       O112   2.237       .  S
In105       O113   2.262       .  S
In105       O114   2.235       .  S
In105       O117   2.222       .  S
C106        O112   1.261       .  A
C106        O114   1.259       .  A
C106        C618   1.482       .  S
O107        C115   1.257       .  A
O108        C115   1.265       .  A
C109        O116   1.266       .  A
C109        O110   1.256       .  A
C109        C573   1.485       .  S
C111        O113   1.265       .  A
C111        O117   1.258       .  A
C111        C586   1.485       .  S
C115        C602   1.492       .  S
In118       O120   2.229       .  S
In118       O121   2.256       .  S
In118       O129   2.277       .  S
In118       O123   2.198       .  S
In118       O125   2.231       .  S
In118       O126   2.268       .  S
In118       O127   2.228       .  S
In118       O130   2.222       .  S
C119        O125   1.259       .  A
C119        O127   1.260       .  A
C119        C538   1.475       .  S
O120        C128   1.257       .  A
O121        C128   1.264       .  A
C122        O129   1.266       .  A
C122        O123   1.255       .  A
C122        C557   1.486       .  S
C124        O126   1.264       .  A
C124        O130   1.258       .  A
C124        C637   1.489       .  S
C128        C650   1.484       .  S
In131       O133   2.236       .  S
In131       O134   2.266       .  S
In131       O142   2.269       .  S
In131       O136   2.219       .  S
In131       O138   2.244       .  S
In131       O139   2.261       .  S
In131       O140   2.239       .  S
In131       O143   2.237       .  S
C132        O138   1.260       .  A
C132        O140   1.261       .  A
C132        C621   1.485       .  S
O133        C141   1.258       .  A
O134        C141   1.262       .  A
C135        O142   1.262       .  A
C135        O136   1.258       .  A
C135        C554   1.483       .  S
C137        O139   1.263       .  A
C137        O143   1.261       .  A
C137        C506   1.493       .  S
C141        C522   1.487       .  S
In144       O146   2.216       .  S
In144       O147   2.240       .  S
In144       O155   2.240       .  S
In144       O149   2.193       .  S
In144       O151   2.244       .  S
In144       O152   2.230       .  S
In144       O153   2.225       .  S
In144       O156   2.236       .  S
C145        O151   1.260       .  A
C145        O153   1.257       .  A
C145        C541   1.481       .  S
O146        C154   1.259       .  A
O147        C154   1.260       .  A
C148        O155   1.263       .  A
C148        O149   1.256       .  A
C148        C490   1.476       .  S
C150        O152   1.260       .  A
C150        O156   1.261       .  A
C150        C669   1.477       .  S
C154        C682   1.477       .  S
In157       O159   2.228       .  S
In157       O160   2.265       .  S
In157       O168   2.263       .  S
In157       O162   2.214       .  S
In157       O164   2.222       .  S
In157       O165   2.278       .  S
In157       O166   2.231       .  S
In157       O169   2.220       .  S
C158        O164   1.260       .  A
C158        O166   1.261       .  A
C158        C474   1.476       .  S
O159        C167   1.259       .  A
O160        C167   1.265       .  A
C161        O168   1.265       .  A
C161        O162   1.259       .  A
C161        C570   1.485       .  S
C163        O165   1.266       .  A
C163        O169   1.256       .  A
C163        C877   1.491       .  S
C167        C861   1.493       .  S
In170       O172   2.219       .  S
In170       O173   2.233       .  S
In170       O181   2.234       .  S
In170       O175   2.207       .  S
In170       O177   2.224       .  S
In170       O178   2.237       .  S
In170       O179   2.230       .  S
In170       O182   2.215       .  S
C171        O177   1.261       .  A
C171        O179   1.259       .  A
C171        C477   1.478       .  S
O172        C180   1.260       .  A
O173        C180   1.261       .  A
C174        O181   1.260       .  A
C174        O175   1.259       .  A
C174        C493   1.476       .  S
C176        O178   1.261       .  A
C176        O182   1.259       .  A
C176        C829   1.481       .  S
C180        C845   1.476       .  S
In183       O185   2.218       .  S
In183       O186   2.245       .  S
In183       O194   2.239       .  S
In183       O188   2.198       .  S
In183       O190   2.232       .  S
In183       O191   2.237       .  S
In183       O192   2.238       .  S
In183       O195   2.237       .  S
C184        O190   1.258       .  A
C184        O192   1.258       .  A
C184        C458   1.479       .  S
O185        C193   1.258       .  A
O186        C193   1.263       .  A
C187        O194   1.263       .  A
C187        O188   1.258       .  A
C187        C442   1.470       .  S
C189        O191   1.261       .  A
C189        O195   1.257       .  A
C189        C765   1.480       .  S
C193        C781   1.477       .  S
In196       O198   2.228       .  S
In196       O199   2.273       .  S
In196       O207   2.276       .  S
In196       O201   2.214       .  S
In196       O203   2.238       .  S
In196       O204   2.273       .  S
In196       O205   2.220       .  S
In196       O208   2.233       .  S
C197        O203   1.261       .  A
C197        O205   1.260       .  A
C197        C461   1.480       .  S
O198        C206   1.258       .  A
O199        C206   1.265       .  A
C200        O207   1.266       .  A
C200        O201   1.256       .  A
C200        C426   1.486       .  S
C202        O204   1.264       .  A
C202        O208   1.260       .  A
C202        C797   1.495       .  S
C206        C813   1.489       .  S
In209       O211   2.236       .  S
In209       O212   2.271       .  S
In209       O220   2.285       .  S
In209       O214   2.216       .  S
In209       O216   2.246       .  S
In209       O217   2.253       .  S
In209       O218   2.230       .  S
In209       O221   2.232       .  S
C210        O216   1.261       .  A
C210        O218   1.258       .  A
C210        C378   1.483       .  S
O211        C219   1.258       .  A
O212        C219   1.262       .  A
C213        O220   1.265       .  A
C213        O214   1.257       .  A
C213        C362   1.492       .  S
C215        O217   1.263       .  A
C215        O221   1.259       .  A
C215        C410   1.481       .  S
C219        C394   1.491       .  S
In222       O224   2.232       .  S
In222       O225   2.265       .  S
In222       O233   2.263       .  S
In222       O227   2.219       .  S
In222       O229   2.244       .  S
In222       O230   2.277       .  S
In222       O231   2.220       .  S
In222       O234   2.224       .  S
C223        O229   1.261       .  A
C223        O231   1.260       .  A
C223        C381   1.481       .  S
O224        C232   1.258       .  A
O225        C232   1.265       .  A
C226        O233   1.264       .  A
C226        O227   1.259       .  A
C226        C429   1.486       .  S
C228        O230   1.265       .  A
C228        O234   1.257       .  A
C228        C346   1.491       .  S
C232        C330   1.493       .  S
In235       O237   2.221       .  S
In235       O238   2.267       .  S
In235       O246   2.285       .  S
In235       O240   2.216       .  S
In235       O242   2.240       .  S
In235       O243   2.270       .  S
In235       O244   2.243       .  S
In235       O247   2.231       .  S
C236        O242   1.262       .  A
C236        O244   1.259       .  A
C236        C314   1.483       .  S
O237        C245   1.259       .  A
O238        C245   1.265       .  A
C239        O246   1.265       .  A
C239        O240   1.259       .  A
C239        C365   1.496       .  S
C241        O243   1.264       .  A
C241        O247   1.258       .  A
C241        C698   1.492       .  S
C245        C717   1.487       .  S
In248       O250   2.243       .  S
In248       O251   2.231       .  S
In248       O259   2.243       .  S
In248       O253   2.210       .  S
In248       O255   2.237       .  S
In248       O256   2.240       .  S
In248       O257   2.246       .  S
In248       O260   2.232       .  S
C249        O255   1.258       .  A
C249        O257   1.260       .  A
C249        C317   1.480       .  S
O250        C258   1.260       .  A
O251        C258   1.259       .  A
C252        O259   1.261       .  A
C252        O253   1.256       .  A
C252        C445   1.472       .  S
C254        O256   1.259       .  A
C254        O260   1.260       .  A
C254        C749   1.481       .  S
C258        C733   1.479       .  S
In261       O272   2.250       .  S
In261       O266   2.259       .  S
In261       O268   2.255       .  S
In261       O273   2.249       .  S
In261      O1151   2.237       .  S
In261      O1152   2.274       .  S
In261      O1157   2.265       .  S
In261      O1158   2.267       .  S
C262        O270   1.260       .  A
C262       O1156   1.259   1_554  A
C262        C275   1.470       .  S
O263      In1149   2.236       .  S
O263        C271   1.259       .  A
O264      In1149   2.275       .  S
O264        C271   1.262       .  A
C265        O272   1.259       .  A
C265        O266   1.261       .  A
C265        C525   1.487       .  S
C267        O273   1.259       .  A
C267       O1157   1.261       .  A
C267       C1194   1.470       .  S
O268       C1150   1.259       .  A
O269      In1149   2.264       .  S
O269       C1155   1.261       .  A
O270      In1149   2.267       .  S
C271        C509   1.483       .  S
In274       O276   2.238       .  S
In274       O285   2.257       .  S
In274       O279   2.235       .  S
In274       O281   2.251       .  S
In274      O1165   2.252       .  S
In274      O1170   2.268       .  S
In274      O1171   2.263       .  S
In274      O1174   2.224       .  S
C275        O283   1.260       .  A
C275       O1169   1.259   1_554  A
O276        C284   1.259       .  A
O277      In1162   2.253       .  S
O277       C1172   1.261   1_554  A
C278        O285   1.261       .  A
C278        O279   1.258       .  A
C278        C589   1.482       .  S
C280        O282   1.262       .  A
C280        O286   1.260       .  A
C280        C605   1.480       .  S
O281       C1163   1.259       .  A
O282      In1162   2.268       .  S
O283      In1162   2.263       .  S
C284       O1165   1.261       .  A
C284       C1185   1.462       .  S
O286      In1162   2.223       .  S
In287       O290   2.239       .  S
In287       O295   2.264       .  S
In287       O296   2.257       .  S
In287       O299   2.249       .  S
In287      O1177   2.248       .  S
In287      O1186   2.237       .  S
In287      O1180   2.248       .  S
In287      O1182   2.262       .  S
C288        O296   1.259       .  A
C288       O1182   1.258       .  A
C288        C301   1.469       .  S
O289      In1175   2.249   1_554  S
O289        C297   1.261   1_554  A
O290       C1185   1.261       .  A
C291        O298   1.260       .  A
C291        O292   1.261       .  A
C291        C413   1.476       .  S
O292      In1175   2.249   1_554  S
C293        O295   1.259       .  A
C293        O299   1.259       .  A
C293        C397   1.483       .  S
O294      In1175   2.262   1_554  S
O294       C1176   1.258   1_554  A
C297       O1178   1.261       .  A
C297       C1172   1.462       .  S
O298      In1175   2.236   1_554  S
In300       O311   2.275   1_556  S
In300       O305   2.242   1_556  S
In300       O307   2.264   1_556  S
In300       O312   2.262   1_556  S
In300      O1190   2.241       .  S
In300      O1191   2.278       .  S
In300      O1196   2.252       .  S
In300      O1197   2.254       .  S
C301        O309   1.258       .  A
C301       O1195   1.259       .  A
O302      In1188   2.239       .  S
O302        C310   1.258       .  A
O303      In1188   2.280       .  S
O303        C310   1.262       .  A
C304        O311   1.262       .  A
C304        O305   1.260       .  A
C304        C333   1.493       .  S
C306        O312   1.261   1_556  A
C306       O1196   1.260       .  A
C306       C1155   1.470   1_556  S
O307       C1189   1.259   1_554  A
O308      In1188   2.252       .  S
O308       C1194   1.260       .  A
O309      In1188   2.255       .  S
C310        C349   1.487       .  S
C313        C314   1.403       .  A
C313        C318   1.401       .  A
C313        H320   1.088       .  S
C314        C315   1.418       .  A
C315        C316   1.404       .  A
C315        C322   1.508       .  S
C316        C317   1.403       .  A
C316        H321   1.086       .  S
C317        C318   1.416       .  A
C318        C319   1.508       .  S
C319        H323   1.111       .  S
C319        H324   1.110       .  S
C319        H325   1.110       .  S
C322        H326   1.110       .  S
C322        H327   1.111       .  S
C322        H328   1.111       .  S
C329        C330   1.406       .  A
C329        C334   1.410       .  A
C329        H336   1.084       .  S
C330        C331   1.421       .  A
C331        C332   1.404       .  A
C331        C338   1.510       .  S
C332        C333   1.404       .  A
C332        H337   1.084       .  S
C333        C334   1.417       .  A
C334        C335   1.506       .  S
C335        H339   1.111       .  S
C335        H340   1.110       .  S
C335        H341   1.110       .  S
C338        H342   1.110       .  S
C338        H343   1.110       .  S
C338        H344   1.111       .  S
C345        C346   1.407       .  A
C345        C350   1.410       .  A
C345        H352   1.085       .  S
C346        C347   1.419       .  A
C347        C348   1.404       .  A
C347        C354   1.509       .  S
C348        C349   1.402       .  A
C348        H353   1.084       .  S
C349        C350   1.416       .  A
C350        C351   1.506       .  S
C351        H355   1.111       .  S
C351        H356   1.110       .  S
C351        H357   1.110       .  S
C354        H358   1.109       .  S
C354        H359   1.111       .  S
C354        H360   1.111       .  S
C361        C362   1.407       .  A
C361        C366   1.413       .  A
C361        H368   1.088       .  S
C362        C363   1.419       .  A
C363        C364   1.399       .  A
C363        C370   1.511       .  S
C364        C365   1.404       .  A
C364        H369   1.086       .  S
C365        C366   1.419       .  A
C366        C367   1.506       .  S
C367        H371   1.111       .  S
C367        H372   1.110       .  S
C367        H373   1.110       .  S
C370        H374   1.110       .  S
C370        H375   1.110       .  S
C370        H376   1.111       .  S
C377        C378   1.406       .  A
C377        C382   1.404       .  A
C377        H384   1.086       .  S
C378        C379   1.417       .  A
C379        C380   1.399       .  A
C379        C386   1.509       .  S
C380        C381   1.403       .  A
C380        H385   1.086       .  S
C381        C382   1.416       .  A
C382        C383   1.508       .  S
C383        H387   1.111       .  S
C383        H388   1.110       .  S
C383        H389   1.110       .  S
C386        H390   1.110       .  S
C386        H391   1.110       .  S
C386        H392   1.111       .  S
C393        C394   1.408       .  A
C393        C398   1.408       .  A
C393        H400   1.084       .  S
C394        C395   1.419       .  A
C395        C396   1.405       .  A
C395        C402   1.508       .  S
C396        C397   1.401       .  A
C396        H401   1.085       .  S
C397        C398   1.414       .  A
C398        C399   1.508       .  S
C399        H403   1.111       .  S
C399        H404   1.110       .  S
C399        H405   1.111       .  S
C402        H406   1.111       .  S
C402        H407   1.109       .  S
C402        H408   1.111       .  S
C409        C410   1.405       .  A
C409        C414   1.403       .  A
C409        H416   1.087       .  S
C410        C411   1.416       .  A
C411        C412   1.404       .  A
C411        C418   1.507       .  S
C412        C413   1.402       .  A
C412        H417   1.086       .  S
C413        C414   1.413       .  A
C414        C415   1.508       .  S
C415        H419   1.111       .  S
C415        H420   1.111       .  S
C415        H421   1.109       .  S
C418        H422   1.110       .  S
C418        H423   1.111       .  S
C418        H424   1.111       .  S
C425        C426   1.406       .  A
C425        C430   1.410       .  A
C425        H432   1.077       .  S
C426        C427   1.418       .  A
C427        C428   1.400       .  A
C427        C434   1.510       .  S
C428        C429   1.404       .  A
C428        H433   1.079       .  S
C429        C430   1.416       .  A
C430        C431   1.506       .  S
C431        H435   1.110       .  S
C431        H436   1.111       .  S
C431        H437   1.110       .  S
C434        H438   1.109       .  S
C434        H439   1.111       .  S
C434        H440   1.110       .  S
C441        C442   1.402       .  A
C441        C446   1.395       .  A
C441        H448   1.084       .  S
C442        C443   1.413       .  A
C443        C444   1.402       .  A
C443        C450   1.507       .  S
C444        C445   1.404       .  A
C444        H449   1.084       .  S
C445        C446   1.415       .  A
C446        C447   1.510       .  S
C447        H451   1.111       .  S
C447        H452   1.110       .  S
C447        H453   1.111       .  S
C450        H454   1.111       .  S
C450        H455   1.110       .  S
C450        H456   1.111       .  S
C457        C458   1.406       .  A
C457        C462   1.402       .  A
C457        H464   1.075       .  S
C458        C459   1.414       .  A
C459        C460   1.400       .  A
C459        C466   1.509       .  S
C460        C461   1.406       .  A
C460        H465   1.079       .  S
C461        C462   1.416       .  A
C462        C463   1.509       .  S
C463        H467   1.110       .  S
C463        H468   1.111       .  S
C463        H469   1.110       .  S
C466        H470   1.111       .  S
C466        H471   1.110       .  S
C466        H472   1.110       .  S
C473        C474   1.404       .  A
C473        C478   1.401       .  A
C473        H480   1.083       .  S
C474        C475   1.415       .  A
C475        C476   1.398       .  A
C475        C482   1.509       .  S
C476        C477   1.403       .  A
C476        H481   1.088       .  S
C477        C478   1.417       .  A
C478        C479   1.509       .  S
C479        H483   1.112       .  S
C479        H484   1.110       .  S
C479        H485   1.109       .  S
C482        H486   1.109       .  S
C482        H487   1.110       .  S
C482        H488   1.112       .  S
C489        C490   1.404       .  A
C489        C494   1.401       .  A
C489        H496   1.084       .  S
C490        C491   1.417       .  A
C491        C492   1.395       .  A
C491        C498   1.511       .  S
C492        C493   1.403       .  A
C492        H497   1.082       .  S
C493        C494   1.415       .  A
C494        C495   1.508       .  S
C495        H499   1.111       .  S
C495        H500   1.110       .  S
C495        H501   1.110       .  S
C498        H502   1.110       .  S
C498        H503   1.110       .  S
C498        H504   1.111       .  S
C505        C506   1.407       .  A
C505        C510   1.403       .  A
C505        H512   1.084       .  S
C506        C507   1.421       .  A
C507        C508   1.410       .  A
C507        C514   1.507       .  S
C508        C509   1.403       .  A
C508        H513   1.086       .  S
C509        C510   1.412       .  A
C510        C511   1.509       .  S
C511        H515   1.111       .  S
C511        H516   1.110       .  S
C511        H517   1.109       .  S
C514        H518   1.110       .  S
C514        H519   1.110       .  S
C514        H520   1.111       .  S
C521        C522   1.405       .  A
C521        C526   1.405       .  A
C521        H528   1.085       .  S
C522        C523   1.416       .  A
C523        C524   1.407       .  A
C523        C530   1.507       .  S
C524        C525   1.405       .  A
C524        H529   1.085       .  S
C525        C526   1.416       .  A
C526        C527   1.508       .  S
C527        H531   1.111       .  S
C527        H532   1.109       .  S
C527        H533   1.110       .  S
C530        H534   1.110       .  S
C530        H535   1.110       .  S
C530        H536   1.111       .  S
C537        C538   1.402       .  A
C537        C542   1.400       .  A
C537        H544   1.077       .  S
C538        C539   1.414       .  A
C539        C540   1.403       .  A
C539        C546   1.509       .  S
C540        C541   1.407       .  A
C540        H545   1.075       .  S
C541        C542   1.417       .  A
C542        C543   1.509       .  S
C543        H547   1.110       .  S
C543        H548   1.111       .  S
C543        H549   1.110       .  S
C546        H550   1.110       .  S
C546        H551   1.111       .  S
C546        H552   1.110       .  S
C553        C554   1.402       .  A
C553        C558   1.399       .  A
C553        H560   1.079       .  S
C554        C555   1.415       .  A
C555        C556   1.411       .  A
C555        C562   1.506       .  S
C556        C557   1.407       .  A
C556        H561   1.078       .  S
C557        C558   1.419       .  A
C558        C559   1.511       .  S
C559        H563   1.110       .  S
C559        H564   1.111       .  S
C559        H565   1.110       .  S
C562        H566   1.110       .  S
C562        H567   1.111       .  S
C562        H568   1.110       .  S
C569        C570   1.403       .  A
C569        C574   1.398       .  A
C569        H576   1.087       .  S
C570        C571   1.416       .  A
C571        C572   1.409       .  A
C571        C578   1.506       .  S
C572        C573   1.406       .  A
C572        H577   1.090       .  S
C573        C574   1.419       .  A
C574        C575   1.511       .  S
C575        H579   1.111       .  S
C575        H580   1.110       .  S
C575        H581   1.111       .  S
C578        H582   1.110       .  S
C578        H583   1.109       .  S
C578        H584   1.111       .  S
C585        C586   1.406       .  A
C585        C590   1.403       .  A
C585        H592   1.084       .  S
C586        C587   1.416       .  A
C587        C588   1.405       .  A
C587        C594   1.507       .  S
C588        C589   1.404       .  A
C588        H593   1.085       .  S
C589        C590   1.415       .  A
C590        C591   1.509       .  S
C591        H595   1.111       .  S
C591        H596   1.111       .  S
C591        H597   1.109       .  S
C594        H598   1.110       .  S
C594        H599   1.110       .  S
C594        H600   1.111       .  S
C601        C602   1.409       .  A
C601        C606   1.409       .  A
C601        H608   1.084       .  S
C602        C603   1.422       .  A
C603        C604   1.400       .  A
C603        C610   1.510       .  S
C604        C605   1.399       .  A
C604        H609   1.085       .  S
C605        C606   1.413       .  A
C606        C607   1.506       .  S
C607        H611   1.111       .  S
C607        H612   1.110       .  S
C607        H613   1.110       .  S
C610        H614   1.110       .  S
C610        H615   1.110       .  S
C610        H616   1.111       .  S
C617        C618   1.404       .  A
C617        C622   1.403       .  A
C617        H624   1.085       .  S
C618        C619   1.416       .  A
C619        C620   1.402       .  A
C619        C626   1.509       .  S
C620        C621   1.405       .  A
C620        H625   1.085       .  S
C621        C622   1.418       .  A
C622        C623   1.508       .  S
C623        H627   1.111       .  S
C623        H628   1.110       .  S
C623        H629   1.110       .  S
C626        H630   1.110       .  S
C626        H631   1.111       .  S
C626        H632   1.111       .  S
C633        C634   1.405       .  A
C633        C638   1.408       .  A
C633        H640   1.085       .  S
C634        C635   1.415       .  A
C635        C636   1.403       .  A
C635        C642   1.509       .  S
C636        C637   1.406       .  A
C636        H641   1.084       .  S
C637        C638   1.417       .  A
C638        C639   1.507       .  S
C639        H643   1.111       .  S
C639        H644   1.110       .  S
C639        H645   1.110       .  S
C642        H646   1.111       .  S
C642        H647   1.109       .  S
C642        H648   1.111       .  S
C649        C650   1.405       .  A
C649        C654   1.404       .  A
C649        H656   1.085       .  S
C650        C651   1.418       .  A
C651        C652   1.403       .  A
C651        C658   1.508       .  S
C652        C653   1.402       .  A
C652        H657   1.084       .  S
C653        C654   1.414       .  A
C654        C655   1.507       .  S
C655        H659   1.111       .  S
C655        H660   1.110       .  S
C655        H661   1.111       .  S
C658        H662   1.110       .  S
C658        H663   1.109       .  S
C658        H664   1.111       .  S
C665        C666   1.403       .  A
C665        C670   1.401       .  A
C665        H672   1.084       .  S
C666        C667   1.418       .  A
C667        C668   1.404       .  A
C667        C674   1.508       .  S
C668        C669   1.403       .  A
C668        H673   1.083       .  S
C669        C670   1.415       .  A
C670        C671   1.509       .  S
C671        H675   1.111       .  S
C671        H676   1.110       .  S
C671        H677   1.111       .  S
C674        H678   1.110       .  S
C674        H679   1.110       .  S
C674        H680   1.111       .  S
C681        C682   1.404       .  A
C681        C686   1.398       .  A
C681        H688   1.086       .  S
C682        C683   1.416       .  A
C683        C684   1.402       .  A
C683        C690   1.508       .  S
C684        C685   1.403       .  A
C684        H689   1.088       .  S
C685        C686   1.413       .  A
C686        C687   1.509       .  S
C687        H691   1.111       .  S
C687        H692   1.109       .  S
C687        H693   1.110       .  S
C690        H694   1.110       .  S
C690        H695   1.110       .  S
C690        H696   1.111       .  S
C697        C698   1.407       .  A
C697        C702   1.406       .  A
C697        H704   1.083       .  S
C698        C699   1.417       .  A
C699        C700   1.407       .  A
C699        C706   1.507       .  S
C700        C701   1.406       .  A
C700        H705   1.085       .  S
C701        C702   1.417       .  A
C702        C703   1.508       .  S
C703        H707   1.111       .  S
C703        H708   1.110       .  S
C703        H709   1.109       .  S
C706        H710   1.110       .  S
C706        H711   1.110       .  S
C706        H712   1.111       .  S
C713        C714   1.404       .  A
C713        C718   1.408       .  A
C713        H720   1.083       .  S
C714        C715   1.411       .  A
C715        C716   1.402       .  A
C715        C722   1.508       .  S
C716        C717   1.407       .  A
C716        H721   1.082       .  S
C717        C718   1.418       .  A
C718        C719   1.507       .  S
C719        H723   1.111       .  S
C719        H724   1.110       .  S
C719        H725   1.110       .  S
C722        H726   1.109       .  S
C722        H727   1.110       .  S
C722        H728   1.111       .  S
C729        C730   1.404       .  A
C729        C734   1.400       .  A
C729        H736   1.085       .  S
C730        C731   1.420       .  A
C731        C732   1.405       .  A
C731        C738   1.509       .  S
C732        C733   1.403       .  A
C732        H737   1.084       .  S
C733        C734   1.415       .  A
C734        C735   1.509       .  S
C735        H739   1.111       .  S
C735        H740   1.110       .  S
C735        H741   1.110       .  S
C738        H742   1.110       .  S
C738        H743   1.110       .  S
C738        H744   1.111       .  S
C745        C746   1.401       .  A
C745        C750   1.403       .  A
C745        H752   1.084       .  S
C746        C747   1.412       .  A
C747        C748   1.399       .  A
C747        C754   1.509       .  S
C748        C749   1.405       .  A
C748        H753   1.083       .  S
C749        C750   1.419       .  A
C750        C751   1.507       .  S
C751        H755   1.111       .  S
C751        H756   1.110       .  S
C751        H757   1.110       .  S
C754        H758   1.111       .  S
C754        H759   1.108       .  S
C754        H760   1.111       .  S
C761        C762   1.405       .  A
C761        C766   1.403       .  A
C761        H768   1.082       .  S
C762        C763   1.415       .  A
C763        C764   1.400       .  A
C763        C770   1.509       .  S
C764        C765   1.403       .  A
C764        H769   1.083       .  S
C765        C766   1.417       .  A
C766        C767   1.508       .  S
C767        H771   1.111       .  S
C767        H772   1.109       .  S
C767        H773   1.110       .  S
C770        H774   1.109       .  S
C770        H775   1.110       .  S
C770        H776   1.111       .  S
C777        C778   1.399       .  A
C777        C782   1.401       .  A
C777        H784   1.084       .  S
C778        C779   1.411       .  A
C779        C780   1.401       .  A
C779        C786   1.508       .  S
C780        C781   1.404       .  A
C780        H785   1.084       .  S
C781        C782   1.417       .  A
C782        C783   1.509       .  S
C783        H787   1.111       .  S
C783        H788   1.111       .  S
C783        H789   1.109       .  S
C786        H790   1.110       .  S
C786        H791   1.111       .  S
C786        H792   1.111       .  S
C793        C794   1.406       .  A
C793        C798   1.412       .  A
C793        H800   1.083       .  S
C794        C795   1.413       .  A
C795        C796   1.405       .  A
C795        C802   1.508       .  S
C796        C797   1.407       .  A
C796        H801   1.082       .  S
C797        C798   1.420       .  A
C798        C799   1.507       .  S
C799        H803   1.111       .  S
C799        H804   1.110       .  S
C799        H805   1.110       .  S
C802        H806   1.111       .  S
C802        H807   1.109       .  S
C802        H808   1.111       .  S
C809        C810   1.406       .  A
C809        C814   1.408       .  A
C809        H816   1.082       .  S
C810        C811   1.415       .  A
C811        C812   1.404       .  A
C811        C818   1.509       .  S
C812        C813   1.406       .  A
C812        H817   1.083       .  S
C813        C814   1.417       .  A
C814        C815   1.507       .  S
C815        H819   1.111       .  S
C815        H820   1.111       .  S
C815        H821   1.110       .  S
C818        H822   1.109       .  S
C818        H823   1.110       .  S
C818        H824   1.111       .  S
C825        C826   1.406       .  A
C825        C830   1.404       .  A
C825        H832   1.086       .  S
C826        C827   1.418       .  A
C827        C828   1.398       .  A
C827        C834   1.510       .  S
C828        C829   1.404       .  A
C828        H833   1.082       .  S
C829        C830   1.416       .  A
C830        C831   1.508       .  S
C831        H835   1.111       .  S
C831        H836   1.110       .  S
C831        H837   1.110       .  S
C834        H838   1.110       .  S
C834        H839   1.110       .  S
C834        H840   1.111       .  S
C841        C842   1.404       .  A
C841        C846   1.404       .  A
C841        H848   1.082       .  S
C842        C843   1.414       .  A
C843        C844   1.400       .  A
C843        C850   1.508       .  S
C844        C845   1.403       .  A
C844        H849   1.082       .  S
C845        C846   1.416       .  A
C846        C847   1.509       .  S
C847        H851   1.110       .  S
C847        H852   1.110       .  S
C847        H853   1.111       .  S
C850        H854   1.111       .  S
C850        H855   1.110       .  S
C850        H856   1.110       .  S
C857        C858   1.407       .  A
C857        C862   1.409       .  A
C857        H864   1.079       .  S
C858        C859   1.418       .  A
C859        C860   1.405       .  A
C859        C866   1.509       .  S
C860        C861   1.407       .  A
C860        H865   1.079       .  S
C861        C862   1.417       .  A
C862        C863   1.507       .  S
C863        H867   1.110       .  S
C863        H868   1.110       .  S
C863        H869   1.111       .  S
C866        H870   1.110       .  S
C866        H871   1.111       .  S
C866        H872   1.111       .  S
C873        C874   1.401       .  A
C873        C878   1.403       .  A
C873        H880   1.085       .  S
C874        C875   1.416       .  A
C875        C876   1.410       .  A
C875        C882   1.507       .  S
C876        C877   1.407       .  A
C876        H881   1.083       .  S
C877        C878   1.420       .  A
C878        C879   1.509       .  S
C879        H883   1.111       .  S
C879        H884   1.109       .  S
C879        H885   1.110       .  S
C882        H886   1.110       .  S
C882        H887   1.110       .  S
C882        H888   1.111       .  S
In889       O900   2.262   1_554  S
In889       O894   2.239   1_554  S
In889       O896   2.252   1_554  S
In889       O901   2.248   1_554  S
C890        O898   1.261       .  A
C890        C912   1.468       .  S
O891        C899   1.259       .  A
O892        C899   1.260       .  A
C893        O900   1.263       .  A
C893        O894   1.260       .  A
C893       C1746   1.493       .  S
C895        O901   1.264   1_554  A
C899       C1762   1.486       .  S
In902       O904   2.255       .  S
In902       O905   2.269       .  S
In902       O909   2.238       .  S
In902       O910   2.242       .  S
In902       O911   2.233       .  S
C903        O909   1.262       .  A
C903        O911   1.263       .  A
C903       C1730   1.477       .  S
O904        C912   1.257       .  A
O905        C912   1.257       .  A
C906        O913   1.263       .  A
C906        O907   1.258       .  A
C906       C1714   1.484       .  S
C908        O910   1.256       .  A
In915       O926   2.259   1_554  S
In915       O920   2.246   1_554  S
In915       O922   2.261   1_554  S
In915       O927   2.224   1_544  S
C916        O924   1.259       .  A
C916        C934   1.470       .  S
O917        C925   1.262       .  A
O918        C925   1.262       .  A
C919        O926   1.260       .  A
C919        O920   1.259       .  A
C919       C1698   1.486       .  S
C921        O927   1.258       .  A
C925       C1682   1.488       .  S
In928       O930   2.239   1_545  S
In928       O939   2.244       .  S
In928       O933   2.221       .  S
In928       O940   2.269       .  S
C929        O935   1.262       .  A
C929        O937   1.260       .  A
C929       C1650   1.482       .  S
O930        C938   1.258       .  A
C932        O939   1.260       .  A
C932        O933   1.260       .  A
C932       C1666   1.468       .  S
C934        O940   1.257       .  A
In941       O943   2.246       .  S
In941       O952   2.234       .  S
In941       O946   2.243       .  S
In941       O953   2.263   1_556  S
C942        O948   1.261       .  A
C942        O950   1.258       .  A
C942       C1634   1.471       .  S
O943        C951   1.260   1_556  A
C945        O952   1.262       .  A
C945        O946   1.258       .  A
C945       C1618   1.484       .  S
C947        O953   1.258   1_556  A
C947        C955   1.469       .  S
In954       O965   2.250       .  S
In954       O959   2.228       .  S
In954       O961   2.262       .  S
In954       O966   2.246       .  S
C955        O963   1.259       .  A
O956        C964   1.259       .  A
O957        C964   1.261       .  A
C958        O965   1.263       .  A
C958        O959   1.262       .  A
C958       C1602   1.478       .  S
C960        O966   1.260       .  A
C964       C1589   1.491       .  S
In967       O969   2.238       .  S
In967       O978   2.236       .  S
In967       O972   2.220       .  S
In967       O975   2.264       .  S
In967       O979   2.260   1_556  S
C968        O974   1.260       .  A
C968        O976   1.263       .  A
C968       C1554   1.482       .  S
O969        C977   1.255   1_455  A
C971        O978   1.261       .  A
C971        O972   1.261       .  A
C971       C1573   1.474       .  S
C973        O975   1.256       .  A
C973        O979   1.257   1_556  A
C973        C981   1.466       .  S
In980       O991   2.259       .  S
In980       O985   2.238       .  S
In980       O987   2.244       .  S
In980       O992   2.237       .  S
C981        O989   1.262       .  A
O982        C990   1.260       .  A
O983        C990   1.261       .  A
C984        O991   1.259       .  A
C984        O985   1.257       .  A
C984       C1541   1.479       .  S
C986        O992   1.259   1_655  A
C990       C1522   1.483       .  S
In993       O995   2.221       .  S
In993       O996   2.271       .  S
In993      O1004   2.273       .  S
In993       O998   2.206       .  S
In993      O1000   2.236       .  S
In993      O1001   2.261       .  S
In993      O1002   2.234       .  S
In993      O1005   2.224       .  S
C994       O1000   1.261       .  A
C994       O1002   1.259       .  A
C994       C1506   1.482       .  S
O995       C1003   1.257       .  A
O996       C1003   1.265       .  A
C997       O1004   1.265       .  A
C997        O998   1.256       .  A
C997       C1461   1.485       .  S
C999       O1001   1.264       .  A
C999       O1005   1.258       .  A
C999       C1474   1.486       .  S
C1003      C1490   1.492       .  S
In1006     O1008   2.230       .  S
In1006     O1009   2.259       .  S
In1006     O1017   2.276       .  S
In1006     O1011   2.200       .  S
In1006     O1013   2.232       .  S
In1006     O1014   2.268       .  S
In1006     O1015   2.226       .  S
In1006     O1018   2.226       .  S
C1007      O1013   1.260       .  A
C1007      O1015   1.260       .  A
C1007      C1426   1.475       .  S
O1008      C1016   1.257       .  A
O1009      C1016   1.264       .  A
C1010      O1017   1.266       .  A
C1010      O1011   1.255       .  A
C1010      C1445   1.485       .  S
C1012      O1014   1.264       .  A
C1012      O1018   1.258       .  A
C1012      C1525   1.489       .  S
C1016      C1538   1.486       .  S
In1019     O1021   2.237       .  S
In1019     O1022   2.265       .  S
In1019     O1030   2.265       .  S
In1019     O1024   2.218       .  S
In1019     O1026   2.244       .  S
In1019     O1027   2.259       .  S
In1019     O1028   2.239       .  S
In1019     O1031   2.237       .  S
C1020      O1026   1.259       .  A
C1020      O1028   1.260       .  A
C1020      C1509   1.485       .  S
O1021      C1029   1.258       .  A
O1022      C1029   1.262       .  A
C1023      O1030   1.263       .  A
C1023      O1024   1.258       .  A
C1023      C1442   1.481       .  S
C1025      O1027   1.262       .  A
C1025      O1031   1.261       .  A
C1025      C1394   1.493       .  S
C1029      C1410   1.486       .  S
In1032     O1034   2.215       .  S
In1032     O1035   2.242       .  S
In1032     O1043   2.240       .  S
In1032     O1037   2.191       .  S
In1032     O1039   2.242       .  S
In1032     O1040   2.230       .  S
In1032     O1041   2.226       .  S
In1032     O1044   2.235       .  S
C1033      O1039   1.260       .  A
C1033      O1041   1.258       .  A
C1033      C1429   1.480       .  S
O1034      C1042   1.258       .  A
O1035      C1042   1.260       .  A
C1036      O1043   1.263       .  A
C1036      O1037   1.256       .  A
C1036      C1378   1.475       .  S
C1038      O1040   1.260       .  A
C1038      O1044   1.260       .  A
C1038      C1557   1.477       .  S
C1042      C1570   1.478       .  S
In1045     O1047   2.229       .  S
In1045     O1048   2.266       .  S
In1045     O1056   2.266       .  S
In1045     O1050   2.212       .  S
In1045     O1052   2.220       .  S
In1045     O1053   2.279       .  S
In1045     O1054   2.230       .  S
In1045     O1057   2.219       .  S
C1046      O1052   1.260       .  A
C1046      O1054   1.261       .  A
C1046      C1362   1.478       .  S
O1047      C1055   1.259       .  A
O1048      C1055   1.265       .  A
C1049      O1056   1.265       .  A
C1049      O1050   1.259       .  A
C1049      C1458   1.485       .  S
C1051      O1053   1.266       .  A
C1051      O1057   1.256       .  A
C1051      C1765   1.491       .  S
C1055      C1749   1.494       .  S
In1058     O1060   2.220       .  S
In1058     O1061   2.234       .  S
In1058     O1069   2.232       .  S
In1058     O1063   2.211       .  S
In1058     O1065   2.226       .  S
In1058     O1066   2.238       .  S
In1058     O1067   2.232       .  S
In1058     O1070   2.217       .  S
C1059      O1065   1.261       .  A
C1059      O1067   1.258       .  A
C1059      C1365   1.479       .  S
O1060      C1068   1.260       .  A
O1061      C1068   1.261       .  A
C1062      O1069   1.260       .  A
C1062      O1063   1.259       .  A
C1062      C1381   1.477       .  S
C1064      O1066   1.261       .  A
C1064      O1070   1.259       .  A
C1064      C1717   1.482       .  S
C1068      C1733   1.478       .  S
In1071     O1073   2.217       .  S
In1071     O1074   2.243       .  S
In1071     O1082   2.236       .  S
In1071     O1076   2.196       .  S
In1071     O1078   2.226       .  S
In1071     O1079   2.236       .  S
In1071     O1080   2.241       .  S
In1071     O1083   2.232       .  S
C1072      O1078   1.258       .  A
C1072      O1080   1.259       .  A
C1072      C1346   1.480       .  S
O1073      C1081   1.257       .  A
O1074      C1081   1.263       .  A
C1075      O1082   1.262       .  A
C1075      O1076   1.258       .  A
C1075      C1330   1.469       .  S
C1077      O1079   1.261       .  A
C1077      O1083   1.257       .  A
C1077      C1653   1.480       .  S
C1081      C1669   1.476       .  S
In1084     O1086   2.227       .  S
In1084     O1087   2.271       .  S
In1084     O1095   2.278       .  S
In1084     O1089   2.214       .  S
In1084     O1091   2.237       .  S
In1084     O1092   2.274       .  S
In1084     O1093   2.223       .  S
In1084     O1096   2.229       .  S
C1085      O1091   1.261       .  A
C1085      O1093   1.260       .  A
C1085      C1349   1.480       .  S
O1086      C1094   1.258       .  A
O1087      C1094   1.265       .  A
C1088      O1095   1.266       .  A
C1088      O1089   1.256       .  A
C1088      C1314   1.487       .  S
C1090      O1092   1.265       .  A
C1090      O1096   1.259       .  A
C1090      C1685   1.495       .  S
C1094      C1701   1.489       .  S
In1097     O1099   2.237       .  S
In1097     O1100   2.272       .  S
In1097     O1108   2.289       .  S
In1097     O1102   2.211       .  S
In1097     O1104   2.246       .  S
In1097     O1105   2.256       .  S
In1097     O1106   2.232       .  S
In1097     O1109   2.231       .  S
C1098      O1104   1.261       .  A
C1098      O1106   1.258       .  A
C1098      C1266   1.484       .  S
O1099      C1107   1.258       .  A
O1100      C1107   1.263       .  A
C1101      O1108   1.265       .  A
C1101      O1102   1.256       .  A
C1101      C1250   1.495       .  S
C1103      O1105   1.264       .  A
C1103      O1109   1.258       .  A
C1103      C1298   1.481       .  S
C1107      C1282   1.492       .  S
In1110     O1112   2.232       .  S
In1110     O1113   2.264       .  S
In1110     O1121   2.264       .  S
In1110     O1115   2.219       .  S
In1110     O1117   2.246       .  S
In1110     O1118   2.274       .  S
In1110     O1119   2.219       .  S
In1110     O1122   2.226       .  S
C1111      O1117   1.261       .  A
C1111      O1119   1.260       .  A
C1111      C1269   1.482       .  S
O1112      C1120   1.258       .  A
O1113      C1120   1.265       .  A
C1114      O1121   1.264       .  A
C1114      O1115   1.259       .  A
C1114      C1317   1.486       .  S
C1116      O1118   1.265       .  A
C1116      O1122   1.257       .  A
C1116      C1234   1.490       .  S
C1120      C1218   1.493       .  S
In1123     O1125   2.220       .  S
In1123     O1126   2.267       .  S
In1123     O1134   2.288       .  S
In1123     O1128   2.214       .  S
In1123     O1130   2.240       .  S
In1123     O1131   2.272       .  S
In1123     O1132   2.244       .  S
In1123     O1135   2.233       .  S
C1124      O1130   1.262       .  A
C1124      O1132   1.259       .  A
C1124      C1202   1.483       .  S
O1125      C1133   1.259       .  A
O1126      C1133   1.265       .  A
C1127      O1134   1.265       .  A
C1127      O1128   1.259       .  A
C1127      C1253   1.496       .  S
C1129      O1131   1.264       .  A
C1129      O1135   1.258       .  A
C1129      C1586   1.492       .  S
C1133      C1605   1.487       .  S
In1136     O1138   2.245       .  S
In1136     O1139   2.228       .  S
In1136     O1147   2.239       .  S
In1136     O1141   2.209       .  S
In1136     O1143   2.238       .  S
In1136     O1144   2.240       .  S
In1136     O1145   2.246       .  S
In1136     O1148   2.230       .  S
C1137      O1143   1.258       .  A
C1137      O1145   1.260       .  A
C1137      C1205   1.482       .  S
O1138      C1146   1.261       .  A
O1139      C1146   1.258       .  A
C1140      O1147   1.261       .  A
C1140      O1141   1.256       .  A
C1140      C1333   1.471       .  S
C1142      O1144   1.259       .  A
C1142      O1148   1.259       .  A
C1142      C1637   1.479       .  S
C1146      C1621   1.480       .  S
In1149     O1160   2.251   1_554  S
In1149     O1154   2.260   1_554  S
In1149     O1156   2.256   1_554  S
In1149     O1161   2.250   1_554  S
C1150      O1158   1.260       .  A
C1150      C1163   1.470       .  S
O1151      C1159   1.259       .  A
O1152      C1159   1.262       .  A
C1153      O1160   1.259       .  A
C1153      O1154   1.260       .  A
C1153      C1413   1.486       .  S
C1155      O1161   1.259   1_554  A
C1159      C1397   1.482       .  S
In1162     O1164   2.238   1_554  S
In1162     O1173   2.256   1_554  S
In1162     O1167   2.236   1_554  S
In1162     O1169   2.252   1_554  S
C1163      O1171   1.261       .  A
O1164      C1172   1.259       .  A
C1166      O1173   1.261       .  A
C1166      O1167   1.258       .  A
C1166      C1477   1.483       .  S
C1168      O1170   1.262       .  A
C1168      O1174   1.260       .  A
C1168      C1493   1.480       .  S
In1175     O1178   2.238       .  S
In1175     O1183   2.264       .  S
In1175     O1184   2.257       .  S
In1175     O1187   2.251       .  S
C1176      O1184   1.259       .  A
C1176      C1189   1.469       .  S
O1177      C1185   1.260       .  A
C1179      O1186   1.260       .  A
C1179      O1180   1.261       .  A
C1179      C1301   1.477       .  S
C1181      O1183   1.259       .  A
C1181      O1187   1.259       .  A
C1181      C1285   1.483       .  S
In1188     O1199   2.275       .  S
In1188     O1193   2.242       .  S
In1188     O1195   2.264       .  S
In1188     O1200   2.262       .  S
C1189      O1197   1.258       .  A
O1190      C1198   1.258       .  A
O1191      C1198   1.262       .  A
C1192      O1199   1.262       .  A
C1192      O1193   1.260       .  A
C1192      C1221   1.492       .  S
C1194      O1200   1.260       .  A
C1198      C1237   1.487       .  S
C1201      C1202   1.403       .  A
C1201      C1206   1.402       .  A
C1201      H1208   1.088       .  S
C1202      C1203   1.417       .  A
C1203      C1204   1.404       .  A
C1203      C1210   1.508       .  S
C1204      C1205   1.404       .  A
C1204      H1209   1.086       .  S
C1205      C1206   1.416       .  A
C1206      C1207   1.508       .  S
C1207      H1211   1.111       .  S
C1207      H1212   1.110       .  S
C1207      H1213   1.110       .  S
C1210      H1214   1.110       .  S
C1210      H1215   1.111       .  S
C1210      H1216   1.111       .  S
C1217      C1218   1.407       .  A
C1217      C1222   1.409       .  A
C1217      H1224   1.084       .  S
C1218      C1219   1.421       .  A
C1219      C1220   1.404       .  A
C1219      C1226   1.509       .  S
C1220      C1221   1.404       .  A
C1220      H1225   1.084       .  S
C1221      C1222   1.417       .  A
C1222      C1223   1.506       .  S
C1223      H1227   1.111       .  S
C1223      H1228   1.110       .  S
C1223      H1229   1.110       .  S
C1226      H1230   1.110       .  S
C1226      H1231   1.110       .  S
C1226      H1232   1.111       .  S
C1233      C1234   1.407       .  A
C1233      C1238   1.410       .  A
C1233      H1240   1.085       .  S
C1234      C1235   1.419       .  A
C1235      C1236   1.404       .  A
C1235      C1242   1.509       .  S
C1236      C1237   1.402       .  A
C1236      H1241   1.084       .  S
C1237      C1238   1.415       .  A
C1238      C1239   1.506       .  S
C1239      H1243   1.111       .  S
C1239      H1244   1.110       .  S
C1239      H1245   1.110       .  S
C1242      H1246   1.109       .  S
C1242      H1247   1.111       .  S
C1242      H1248   1.111       .  S
C1249      C1250   1.409       .  A
C1249      C1254   1.414       .  A
C1249      H1256   1.087       .  S
C1250      C1251   1.421       .  A
C1251      C1252   1.399       .  A
C1251      C1258   1.511       .  S
C1252      C1253   1.403       .  A
C1252      H1257   1.086       .  S
C1253      C1254   1.419       .  A
C1254      C1255   1.506       .  S
C1255      H1259   1.111       .  S
C1255      H1260   1.110       .  S
C1255      H1261   1.110       .  S
C1258      H1262   1.110       .  S
C1258      H1263   1.110       .  S
C1258      H1264   1.111       .  S
C1265      C1266   1.406       .  A
C1265      C1270   1.404       .  A
C1265      H1272   1.086       .  S
C1266      C1267   1.417       .  A
C1267      C1268   1.399       .  A
C1267      C1274   1.509       .  S
C1268      C1269   1.403       .  A
C1268      H1273   1.086       .  S
C1269      C1270   1.416       .  A
C1270      C1271   1.508       .  S
C1271      H1275   1.111       .  S
C1271      H1276   1.110       .  S
C1271      H1277   1.110       .  S
C1274      H1278   1.110       .  S
C1274      H1279   1.110       .  S
C1274      H1280   1.111       .  S
C1281      C1282   1.407       .  A
C1281      C1286   1.408       .  A
C1281      H1288   1.084       .  S
C1282      C1283   1.419       .  A
C1283      C1284   1.406       .  A
C1283      C1290   1.508       .  S
C1284      C1285   1.401       .  A
C1284      H1289   1.085       .  S
C1285      C1286   1.414       .  A
C1286      C1287   1.508       .  S
C1287      H1291   1.111       .  S
C1287      H1292   1.110       .  S
C1287      H1293   1.111       .  S
C1290      H1294   1.111       .  S
C1290      H1295   1.109       .  S
C1290      H1296   1.111       .  S
C1297      C1298   1.405       .  A
C1297      C1302   1.403       .  A
C1297      H1304   1.087       .  S
C1298      C1299   1.416       .  A
C1299      C1300   1.404       .  A
C1299      C1306   1.507       .  S
C1300      C1301   1.402       .  A
C1300      H1305   1.086       .  S
C1301      C1302   1.413       .  A
C1302      C1303   1.508       .  S
C1303      H1307   1.111       .  S
C1303      H1308   1.111       .  S
C1303      H1309   1.109       .  S
C1306      H1310   1.110       .  S
C1306      H1311   1.111       .  S
C1306      H1312   1.111       .  S
C1313      C1314   1.406       .  A
C1313      C1318   1.411       .  A
C1313      H1320   1.077       .  S
C1314      C1315   1.418       .  A
C1315      C1316   1.400       .  A
C1315      C1322   1.510       .  S
C1316      C1317   1.404       .  A
C1316      H1321   1.079       .  S
C1317      C1318   1.416       .  A
C1318      C1319   1.506       .  S
C1319      H1323   1.110       .  S
C1319      H1324   1.111       .  S
C1319      H1325   1.110       .  S
C1322      H1326   1.109       .  S
C1322      H1327   1.111       .  S
C1322      H1328   1.110       .  S
C1329      C1330   1.402       .  A
C1329      C1334   1.395       .  A
C1329      H1336   1.084       .  S
C1330      C1331   1.413       .  A
C1331      C1332   1.401       .  A
C1331      C1338   1.507       .  S
C1332      C1333   1.404       .  A
C1332      H1337   1.084       .  S
C1333      C1334   1.415       .  A
C1334      C1335   1.510       .  S
C1335      H1339   1.111       .  S
C1335      H1340   1.110       .  S
C1335      H1341   1.111       .  S
C1338      H1342   1.111       .  S
C1338      H1343   1.110       .  S
C1338      H1344   1.111       .  S
C1345      C1346   1.406       .  A
C1345      C1350   1.401       .  A
C1345      H1352   1.076       .  S
C1346      C1347   1.415       .  A
C1347      C1348   1.401       .  A
C1347      C1354   1.509       .  S
C1348      C1349   1.406       .  A
C1348      H1353   1.079       .  S
C1349      C1350   1.415       .  A
C1350      C1351   1.509       .  S
C1351      H1355   1.110       .  S
C1351      H1356   1.111       .  S
C1351      H1357   1.110       .  S
C1354      H1358   1.111       .  S
C1354      H1359   1.110       .  S
C1354      H1360   1.110       .  S
C1361      C1362   1.405       .  A
C1361      C1366   1.401       .  A
C1361      H1368   1.081       .  S
C1362      C1363   1.416       .  A
C1363      C1364   1.398       .  A
C1363      C1370   1.509       .  S
C1364      C1365   1.404       .  A
C1364      H1369   1.085       .  S
C1365      C1366   1.417       .  A
C1366      C1367   1.509       .  S
C1367      H1371   1.112       .  S
C1367      H1372   1.110       .  S
C1367      H1373   1.109       .  S
C1370      H1374   1.109       .  S
C1370      H1375   1.110       .  S
C1370      H1376   1.112       .  S
C1377      C1378   1.404       .  A
C1377      C1382   1.401       .  A
C1377      H1384   1.084       .  S
C1378      C1379   1.417       .  A
C1379      C1380   1.395       .  A
C1379      C1386   1.511       .  S
C1380      C1381   1.403       .  A
C1380      H1385   1.082       .  S
C1381      C1382   1.416       .  A
C1382      C1383   1.508       .  S
C1383      H1387   1.111       .  S
C1383      H1388   1.110       .  S
C1383      H1389   1.110       .  S
C1386      H1390   1.110       .  S
C1386      H1391   1.110       .  S
C1386      H1392   1.111       .  S
C1393      C1394   1.407       .  A
C1393      C1398   1.402       .  A
C1393      H1400   1.084       .  S
C1394      C1395   1.421       .  A
C1395      C1396   1.410       .  A
C1395      C1402   1.507       .  S
C1396      C1397   1.403       .  A
C1396      H1401   1.086       .  S
C1397      C1398   1.412       .  A
C1398      C1399   1.508       .  S
C1399      H1403   1.111       .  S
C1399      H1404   1.110       .  S
C1399      H1405   1.109       .  S
C1402      H1406   1.110       .  S
C1402      H1407   1.110       .  S
C1402      H1408   1.111       .  S
C1409      C1410   1.405       .  A
C1409      C1414   1.405       .  A
C1409      H1416   1.085       .  S
C1410      C1411   1.416       .  A
C1411      C1412   1.406       .  A
C1411      C1418   1.507       .  S
C1412      C1413   1.405       .  A
C1412      H1417   1.085       .  S
C1413      C1414   1.416       .  A
C1414      C1415   1.508       .  S
C1415      H1419   1.111       .  S
C1415      H1420   1.109       .  S
C1415      H1421   1.110       .  S
C1418      H1422   1.110       .  S
C1418      H1423   1.110       .  S
C1418      H1424   1.111       .  S
C1425      C1426   1.402       .  A
C1425      C1430   1.400       .  A
C1425      H1432   1.077       .  S
C1426      C1427   1.414       .  A
C1427      C1428   1.403       .  A
C1427      C1434   1.509       .  S
C1428      C1429   1.407       .  A
C1428      H1433   1.075       .  S
C1429      C1430   1.417       .  A
C1430      C1431   1.509       .  S
C1431      H1435   1.110       .  S
C1431      H1436   1.111       .  S
C1431      H1437   1.110       .  S
C1434      H1438   1.110       .  S
C1434      H1439   1.111       .  S
C1434      H1440   1.110       .  S
C1441      C1442   1.401       .  A
C1441      C1446   1.398       .  A
C1441      H1448   1.079       .  S
C1442      C1443   1.414       .  A
C1443      C1444   1.410       .  A
C1443      C1450   1.506       .  S
C1444      C1445   1.407       .  A
C1444      H1449   1.078       .  S
C1445      C1446   1.419       .  A
C1446      C1447   1.511       .  S
C1447      H1451   1.110       .  S
C1447      H1452   1.111       .  S
C1447      H1453   1.110       .  S
C1450      H1454   1.110       .  S
C1450      H1455   1.111       .  S
C1450      H1456   1.110       .  S
C1457      C1458   1.403       .  A
C1457      C1462   1.398       .  A
C1457      H1464   1.087       .  S
C1458      C1459   1.416       .  A
C1459      C1460   1.409       .  A
C1459      C1466   1.506       .  S
C1460      C1461   1.406       .  A
C1460      H1465   1.090       .  S
C1461      C1462   1.418       .  A
C1462      C1463   1.511       .  S
C1463      H1467   1.111       .  S
C1463      H1468   1.110       .  S
C1463      H1469   1.111       .  S
C1466      H1470   1.110       .  S
C1466      H1471   1.109       .  S
C1466      H1472   1.111       .  S
C1473      C1474   1.406       .  A
C1473      C1478   1.403       .  A
C1473      H1480   1.084       .  S
C1474      C1475   1.416       .  A
C1475      C1476   1.405       .  A
C1475      C1482   1.507       .  S
C1476      C1477   1.404       .  A
C1476      H1481   1.085       .  S
C1477      C1478   1.415       .  A
C1478      C1479   1.509       .  S
C1479      H1483   1.111       .  S
C1479      H1484   1.111       .  S
C1479      H1485   1.109       .  S
C1482      H1486   1.110       .  S
C1482      H1487   1.110       .  S
C1482      H1488   1.111       .  S
C1489      C1490   1.409       .  A
C1489      C1494   1.409       .  A
C1489      H1496   1.084       .  S
C1490      C1491   1.422       .  A
C1491      C1492   1.401       .  A
C1491      C1498   1.509       .  S
C1492      C1493   1.399       .  A
C1492      H1497   1.085       .  S
C1493      C1494   1.413       .  A
C1494      C1495   1.506       .  S
C1495      H1499   1.111       .  S
C1495      H1500   1.110       .  S
C1495      H1501   1.110       .  S
C1498      H1502   1.110       .  S
C1498      H1503   1.110       .  S
C1498      H1504   1.111       .  S
C1505      C1506   1.404       .  A
C1505      C1510   1.403       .  A
C1505      H1512   1.085       .  S
C1506      C1507   1.416       .  A
C1507      C1508   1.402       .  A
C1507      C1514   1.509       .  S
C1508      C1509   1.405       .  A
C1508      H1513   1.085       .  S
C1509      C1510   1.418       .  A
C1510      C1511   1.508       .  S
C1511      H1515   1.111       .  S
C1511      H1516   1.110       .  S
C1511      H1517   1.110       .  S
C1514      H1518   1.110       .  S
C1514      H1519   1.111       .  S
C1514      H1520   1.111       .  S
C1521      C1522   1.404       .  A
C1521      C1526   1.407       .  A
C1521      H1528   1.085       .  S
C1522      C1523   1.414       .  A
C1523      C1524   1.403       .  A
C1523      C1530   1.509       .  S
C1524      C1525   1.407       .  A
C1524      H1529   1.084       .  S
C1525      C1526   1.418       .  A
C1526      C1527   1.506       .  S
C1527      H1531   1.111       .  S
C1527      H1532   1.110       .  S
C1527      H1533   1.110       .  S
C1530      H1534   1.111       .  S
C1530      H1535   1.109       .  S
C1530      H1536   1.111       .  S
C1537      C1538   1.405       .  A
C1537      C1542   1.405       .  A
C1537      H1544   1.085       .  S
C1538      C1539   1.418       .  A
C1539      C1540   1.403       .  A
C1539      C1546   1.508       .  S
C1540      C1541   1.403       .  A
C1540      H1545   1.084       .  S
C1541      C1542   1.414       .  A
C1542      C1543   1.507       .  S
C1543      H1547   1.111       .  S
C1543      H1548   1.110       .  S
C1543      H1549   1.110       .  S
C1546      H1550   1.110       .  S
C1546      H1551   1.109       .  S
C1546      H1552   1.111       .  S
C1553      C1554   1.403       .  A
C1553      C1558   1.401       .  A
C1553      H1560   1.084       .  S
C1554      C1555   1.417       .  A
C1555      C1556   1.404       .  A
C1555      C1562   1.508       .  S
C1556      C1557   1.403       .  A
C1556      H1561   1.083       .  S
C1557      C1558   1.415       .  A
C1558      C1559   1.509       .  S
C1559      H1563   1.111       .  S
C1559      H1564   1.110       .  S
C1559      H1565   1.111       .  S
C1562      H1566   1.110       .  S
C1562      H1567   1.110       .  S
C1562      H1568   1.111       .  S
C1569      C1570   1.404       .  A
C1569      C1574   1.398       .  A
C1569      H1576   1.085       .  S
C1570      C1571   1.416       .  A
C1571      C1572   1.402       .  A
C1571      C1578   1.508       .  S
C1572      C1573   1.404       .  A
C1572      H1577   1.088       .  S
C1573      C1574   1.413       .  A
C1574      C1575   1.509       .  S
C1575      H1579   1.111       .  S
C1575      H1580   1.109       .  S
C1575      H1581   1.110       .  S
C1578      H1582   1.110       .  S
C1578      H1583   1.110       .  S
C1578      H1584   1.111       .  S
C1585      C1586   1.407       .  A
C1585      C1590   1.406       .  A
C1585      H1592   1.083       .  S
C1586      C1587   1.417       .  A
C1587      C1588   1.408       .  A
C1587      C1594   1.507       .  S
C1588      C1589   1.406       .  A
C1588      H1593   1.085       .  S
C1589      C1590   1.417       .  A
C1590      C1591   1.508       .  S
C1591      H1595   1.111       .  S
C1591      H1596   1.110       .  S
C1591      H1597   1.109       .  S
C1594      H1598   1.110       .  S
C1594      H1599   1.110       .  S
C1594      H1600   1.111       .  S
C1601      C1602   1.404       .  A
C1601      C1606   1.408       .  A
C1601      H1608   1.083       .  S
C1602      C1603   1.411       .  A
C1603      C1604   1.402       .  A
C1603      C1610   1.509       .  S
C1604      C1605   1.407       .  A
C1604      H1609   1.082       .  S
C1605      C1606   1.418       .  A
C1606      C1607   1.507       .  S
C1607      H1611   1.111       .  S
C1607      H1612   1.110       .  S
C1607      H1613   1.110       .  S
C1610      H1614   1.109       .  S
C1610      H1615   1.110       .  S
C1610      H1616   1.111       .  S
C1617      C1618   1.403       .  A
C1617      C1622   1.399       .  A
C1617      H1624   1.085       .  S
C1618      C1619   1.419       .  A
C1619      C1620   1.405       .  A
C1619      C1626   1.509       .  S
C1620      C1621   1.404       .  A
C1620      H1625   1.084       .  S
C1621      C1622   1.416       .  A
C1622      C1623   1.509       .  S
C1623      H1627   1.111       .  S
C1623      H1628   1.110       .  S
C1623      H1629   1.110       .  S
C1626      H1630   1.110       .  S
C1626      H1631   1.110       .  S
C1626      H1632   1.111       .  S
C1633      C1634   1.401       .  A
C1633      C1638   1.403       .  A
C1633      H1640   1.084       .  S
C1634      C1635   1.412       .  A
C1635      C1636   1.399       .  A
C1635      C1642   1.509       .  S
C1636      C1637   1.404       .  A
C1636      H1641   1.083       .  S
C1637      C1638   1.418       .  A
C1638      C1639   1.507       .  S
C1639      H1643   1.111       .  S
C1639      H1644   1.110       .  S
C1639      H1645   1.110       .  S
C1642      H1646   1.111       .  S
C1642      H1647   1.109       .  S
C1642      H1648   1.111       .  S
C1649      C1650   1.405       .  A
C1649      C1654   1.403       .  A
C1649      H1656   1.082       .  S
C1650      C1651   1.417       .  A
C1651      C1652   1.400       .  A
C1651      C1658   1.509       .  S
C1652      C1653   1.403       .  A
C1652      H1657   1.083       .  S
C1653      C1654   1.417       .  A
C1654      C1655   1.509       .  S
C1655      H1659   1.111       .  S
C1655      H1660   1.109       .  S
C1655      H1661   1.110       .  S
C1658      H1662   1.110       .  S
C1658      H1663   1.110       .  S
C1658      H1664   1.111       .  S
C1665      C1666   1.400       .  A
C1665      C1670   1.400       .  A
C1665      H1672   1.084       .  S
C1666      C1667   1.412       .  A
C1667      C1668   1.401       .  A
C1667      C1674   1.508       .  S
C1668      C1669   1.404       .  A
C1668      H1673   1.084       .  S
C1669      C1670   1.417       .  A
C1670      C1671   1.509       .  S
C1671      H1675   1.111       .  S
C1671      H1676   1.110       .  S
C1671      H1677   1.109       .  S
C1674      H1678   1.110       .  S
C1674      H1679   1.111       .  S
C1674      H1680   1.111       .  S
C1681      C1682   1.406       .  A
C1681      C1686   1.411       .  A
C1681      H1688   1.083       .  S
C1682      C1683   1.414       .  A
C1683      C1684   1.404       .  A
C1683      C1690   1.508       .  S
C1684      C1685   1.407       .  A
C1684      H1689   1.082       .  S
C1685      C1686   1.419       .  A
C1686      C1687   1.507       .  S
C1687      H1691   1.111       .  S
C1687      H1692   1.110       .  S
C1687      H1693   1.110       .  S
C1690      H1694   1.111       .  S
C1690      H1695   1.109       .  S
C1690      H1696   1.111       .  S
C1697      C1698   1.406       .  A
C1697      C1702   1.408       .  A
C1697      H1704   1.082       .  S
C1698      C1699   1.415       .  A
C1699      C1700   1.404       .  A
C1699      C1706   1.508       .  S
C1700      C1701   1.406       .  A
C1700      H1705   1.083       .  S
C1701      C1702   1.417       .  A
C1702      C1703   1.507       .  S
C1703      H1707   1.111       .  S
C1703      H1708   1.111       .  S
C1703      H1709   1.110       .  S
C1706      H1710   1.109       .  S
C1706      H1711   1.110       .  S
C1706      H1712   1.111       .  S
C1713      C1714   1.406       .  A
C1713      C1718   1.404       .  A
C1713      H1720   1.086       .  S
C1714      C1715   1.418       .  A
C1715      C1716   1.399       .  A
C1715      C1722   1.510       .  S
C1716      C1717   1.404       .  A
C1716      H1721   1.082       .  S
C1717      C1718   1.416       .  A
C1718      C1719   1.508       .  S
C1719      H1723   1.111       .  S
C1719      H1724   1.110       .  S
C1719      H1725   1.110       .  S
C1722      H1726   1.110       .  S
C1722      H1727   1.110       .  S
C1722      H1728   1.111       .  S
C1729      C1730   1.403       .  A
C1729      C1734   1.403       .  A
C1729      H1736   1.082       .  S
C1730      C1731   1.414       .  A
C1731      C1732   1.401       .  A
C1731      C1738   1.508       .  S
C1732      C1733   1.404       .  A
C1732      H1737   1.082       .  S
C1733      C1734   1.416       .  A
C1734      C1735   1.509       .  S
C1735      H1739   1.110       .  S
C1735      H1740   1.110       .  S
C1735      H1741   1.111       .  S
C1738      H1742   1.111       .  S
C1738      H1743   1.110       .  S
C1738      H1744   1.110       .  S
C1745      C1746   1.407       .  A
C1745      C1750   1.409       .  A
C1745      H1752   1.079       .  S
C1746      C1747   1.418       .  A
C1747      C1748   1.405       .  A
C1747      C1754   1.509       .  S
C1748      C1749   1.408       .  A
C1748      H1753   1.079       .  S
C1749      C1750   1.416       .  A
C1750      C1751   1.506       .  S
C1751      H1755   1.110       .  S
C1751      H1756   1.110       .  S
C1751      H1757   1.111       .  S
C1754      H1758   1.110       .  S
C1754      H1759   1.111       .  S
C1754      H1760   1.111       .  S
C1761      C1762   1.402       .  A
C1761      C1766   1.403       .  A
C1761      H1768   1.085       .  S
C1762      C1763   1.416       .  A
C1763      C1764   1.410       .  A
C1763      C1770   1.507       .  S
C1764      C1765   1.407       .  A
C1764      H1769   1.083       .  S
C1765      C1766   1.420       .  A
C1766      C1767   1.509       .  S
C1767      H1771   1.111       .  S
C1767      H1772   1.109       .  S
C1767      H1773   1.110       .  S
C1770      H1774   1.110       .  S
C1770      H1775   1.110       .  S
C1770      H1776   1.111       .  S
