geometry optimzed in LAMMPS
_audit_creation_date              2020-11-30 
_audit_creation_method            'lammps2cif' 
_symmetry_space_group_name_H-M    'P1' 
_symmetry_Int_Tables_number       1 
_symmetry_cell_setting            triclinic 
loop_ 
_symmetry_equiv_pos_as_xyz 
  x,y,z 
_cell_length_a                    53.16856901 
_cell_length_b                    53.21216276574946 
_cell_length_c                    53.32375099228464 
_cell_angle_alpha                 90.12009205177446 
_cell_angle_beta                  90.1994328416911 
_cell_angle_gamma                 89.69826596857501 
loop_ 
_atom_site_label 
_atom_site_type_symbol 
_atom_site_fract_x 
_atom_site_fract_y 
_atom_site_fract_z 
_atom_site_charge 
O1          O  0.83015322  0.27917454  0.85016396    -0.85900
O2          O  0.81710515  0.32799950  0.85986396    -0.82900
C3          C  0.81816955  0.35109718  0.86495881     0.97600
O4          O  0.83897689  0.36274722  0.86396113    -0.83000
O5          O  0.86604496  0.34441103  0.90434321    -0.85600
C6          C  0.87466782  0.32711480  0.91813315     1.02100
O7          O  0.88382754  0.30720028  0.90868549    -0.78400
O8          O  0.84703533  0.27698515  0.88738919    -0.78600
C9          C  0.83006889  0.27047948  0.87209000     1.02000
O10         O  0.86638714  0.29569557  0.81514998    -0.85900
O11         O  0.84732093  0.34423322  0.81938091    -0.83000
C12         C  0.86779006  0.35542108  0.81587391     0.97600
O13         O  0.88421379  0.35551114  0.83291793    -0.83000
O14         O  0.91069203  0.34077584  0.87478639    -0.85600
C15         C  0.92407341  0.32187572  0.86910749     1.02100
O16         O  0.91403287  0.30090314  0.86461423    -0.78400
O17         O  0.87914481  0.26909642  0.84410959    -0.78600
C18         C  0.87675518  0.27511448  0.82117877     1.02000
Cr19       Cr  0.84212059  0.31221690  0.83790386     1.93700
Cr20       Cr  0.87430422  0.34845573  0.86835488     1.93200
Cr21       Cr  0.87990846  0.29066478  0.87519389     1.39100
O22         O  0.86560200  0.31708582  0.86077502    -1.23600
O23         O  0.71561112  0.13146121  0.82634849    -0.85900
O24         O  0.66741750  0.11704419  0.81817219    -0.82900
C25         C  0.64441967  0.11261723  0.82092844     0.97600
O26         O  0.63440526  0.11492050  0.84242516    -0.83000
O27         O  0.65993376  0.07924287  0.87158535    -0.85600
C28         C  0.67897791  0.06864587  0.88137248     1.02100
O29         O  0.69648184  0.08185263  0.89069168    -0.78400
O30         O  0.72169951  0.09792976  0.84899565    -0.78600
C31         C  0.72424526  0.10956313  0.82862274     1.02000
O32         O  0.69873854  0.17166568  0.85679018    -0.85900
O33         O  0.64986421  0.16107541  0.84349603    -0.83000
C34         C  0.63954643  0.16661982  0.86402120     0.97600
O35         O  0.64128876  0.15172653  0.88243248    -0.83000
O36         O  0.66215036  0.11448073  0.91301478    -0.85600
C37         C  0.68039324  0.12520900  0.92400355     1.02100
O38         O  0.69961687  0.13155165  0.91177905    -0.78400
O39         O  0.72856732  0.14749921  0.87229653    -0.78600
C40         C  0.72040242  0.16919468  0.86627523     1.02000
Cr41       Cr  0.68274122  0.14391223  0.83822764     1.93700
Cr42       Cr  0.65154204  0.11567366  0.87664374     1.93200
Cr43       Cr  0.70957374  0.11542985  0.87991160     1.39100
O44         O  0.68131522  0.12506279  0.86519761    -1.23600
O45         O  0.85838338  0.15622597  0.72936722    -0.85900
O46         O  0.86260064  0.17608346  0.68318189    -0.82900
C47         C  0.87063439  0.17859738  0.66115789     0.97600
O48         O  0.87259241  0.15963215  0.64663141    -0.83000
O49         O  0.91270768  0.12956280  0.66336405    -0.85600
C50         C  0.92502569  0.11548875  0.67806750     1.02100
O51         O  0.91365405  0.10270467  0.69420660    -0.78400
O52         O  0.89575494  0.13858599  0.72761307    -0.78600
C53         C  0.88130339  0.15564004  0.73576680     1.02000
O54         O  0.82182575  0.12070208  0.71049635    -0.85900
O55         O  0.82319207  0.14501796  0.66471013    -0.83000
C56         C  0.82239026  0.12748432  0.64884664     0.97600
O57         O  0.84146415  0.11399578  0.64462525    -0.83000
O58         O  0.88168054  0.08448147  0.65868583    -0.85600
C59         C  0.87431385  0.06907810  0.67540200     1.02100
O60         O  0.86802816  0.07689266  0.69688852    -0.78400
O61         O  0.85235976  0.10809982  0.73484447    -0.78600
C62         C  0.82920019  0.10920316  0.72987978     1.02000
Cr63       Cr  0.84324068  0.14772770  0.69614347     1.93700
Cr64       Cr  0.87636748  0.12235407  0.65569092     1.93200
Cr65       Cr  0.88138001  0.10806109  0.71148245     1.39100
O66         O  0.86705265  0.12613443  0.68753022    -1.23600
O67         O  0.67880021  0.36031842  0.79294938    -0.85900
O68         O  0.67382223  0.34059553  0.84035557    -0.82900
C69         C  0.67601169  0.36027810  0.85339099     0.97600
O70         O  0.65821136  0.37592821  0.85469044    -0.83000
O71         O  0.61691157  0.40334849  0.83941294    -0.85600
C72         C  0.62560764  0.41794355  0.82284708     1.02100
O73         O  0.63252943  0.40923742  0.80185365    -0.78400
O74         O  0.65065064  0.37514326  0.76672871    -0.78600
C75         C  0.67344502  0.37142382  0.77272472     1.02000
O76         O  0.64185609  0.32582633  0.77463589    -0.85900
O77         O  0.63320288  0.31024190  0.82255456    -0.83000
C78         C  0.62794393  0.31021989  0.84555419     0.97600
O79         O  0.62771893  0.33069498  0.85785750    -0.83000
O80         O  0.58732063  0.35842008  0.83790951    -0.85600
C81         C  0.57491799  0.37060452  0.82163674     1.02100
O82         O  0.58620738  0.38215165  0.80427987    -0.78400
O83         O  0.60561807  0.34548143  0.77261665    -0.78600
C84         C  0.61956562  0.32714460  0.76654405     1.02000
Cr85       Cr  0.65519216  0.33610925  0.80810041     1.93700
Cr86       Cr  0.62324263  0.36648457  0.84510900     1.93200
Cr87       Cr  0.61970308  0.37675692  0.78828033     1.39100
O88         O  0.63257099  0.35979103  0.81381942    -1.23600
O89         O  0.79328582  0.31617190  0.62422729    -0.85900
O90         O  0.83791260  0.32501833  0.64952434    -0.82900
C91         C  0.85079148  0.32073024  0.63022998     0.97600
O92         O  0.85295058  0.33782956  0.61399138    -0.83000
O93         O  0.83917255  0.37811266  0.58377051    -0.85600
C94         C  0.82301693  0.37023677  0.56806294     1.02100
O95         O  0.80162431  0.36319982  0.57540026    -0.78400
O96         O  0.76647486  0.34250730  0.60684928    -0.78600
C97         C  0.77363828  0.32015423  0.61148721     1.02000
O98         O  0.76873892  0.35210260  0.65532504    -0.85900
O99         O  0.81369361  0.36548585  0.67482658    -0.83000
C100        C  0.83588344  0.37318865  0.67708762     0.97600
O101        O  0.85102232  0.37182318  0.65863064    -0.83000
O102        O  0.83322908  0.40956795  0.62738764    -0.85600
C103        C  0.81642060  0.42139532  0.61526213     1.02100
O104        O  0.79993355  0.40953391  0.60282809    -0.78400
O105        O  0.76731768  0.38850911  0.63670508    -0.78600
C106        C  0.76038039  0.37424412  0.65418404     1.02000
Cr107      Cr  0.80400422  0.34128775  0.64915646     1.93700
Cr108      Cr  0.84200648  0.37346344  0.62128981     1.93200
Cr109      Cr  0.78564863  0.37507134  0.60680157     1.39100
O110        O  0.81056994  0.36349607  0.62555374    -1.23600
O111        O  0.64011687  0.20900510  0.67112770    -0.85900
O112        O  0.62787285  0.16019871  0.68262642    -0.82900
C113        C  0.62503810  0.13678793  0.68121954     0.97600
O114        O  0.62786418  0.12575336  0.66033633    -0.83000
O115        O  0.59067802  0.14844969  0.63097371    -0.85600
C116        C  0.57976781  0.16651134  0.61988409     1.02100
O117        O  0.59228656  0.18292938  0.60812326    -0.78400
O118        O  0.60977828  0.21558872  0.64394348    -0.78600
C119        C  0.62085628  0.22115002  0.66411804     1.02000
O120        O  0.68176783  0.19056318  0.64214080    -0.85900
O121        O  0.67283795  0.14278291  0.65733683    -0.83000
C122        C  0.67823256  0.13172294  0.63699850     0.97600
O123        O  0.66254372  0.13121889  0.61913368    -0.83000
O124        O  0.62291378  0.14668945  0.58830320    -0.85600
C125        C  0.63336100  0.16323331  0.57502489     1.02100
O126        O  0.64150863  0.18290335  0.58523007    -0.78400
O127        O  0.65804501  0.21633129  0.62016169    -0.78600
C128        C  0.67947750  0.20930436  0.62790589     1.02000
Cr129      Cr  0.65408647  0.17537623  0.66132407     1.93700
Cr130      Cr  0.62662263  0.14027618  0.62533155     1.93200
Cr131      Cr  0.62609851  0.19729896  0.61575663     1.39100
O132        O  0.63544079  0.17124713  0.63419443    -1.23600
O133        O  0.17360621  0.12051806  0.71582118    -0.85900
O134        O  0.17431880  0.14455364  0.67019454    -0.82900
C135        C  0.17905224  0.12666822  0.65536250     0.97600
O136        O  0.16289643  0.10981971  0.65138786    -0.83000
O137        O  0.12030694  0.08026989  0.65962388    -0.85600
C138        C  0.12543514  0.06482075  0.67718616     1.02100
O139        O  0.12907915  0.07278112  0.69920112    -0.78400
O140        O  0.14263671  0.10487346  0.73783032    -0.78600
C141        C  0.16594620  0.10941095  0.73518478     1.02000
O142        O  0.13453764  0.15301779  0.73223006    -0.85900
O143        O  0.13087624  0.17215341  0.68500320    -0.83000
C144        C  0.12803355  0.17401704  0.66164075     0.97600
O145        O  0.13129628  0.15492389  0.64756394    -0.83000
O146        O  0.09039817  0.12654983  0.65962525    -0.85600
C147        C  0.07528279  0.11521514  0.67370183     1.02100
O148        O  0.08345690  0.10077560  0.69079671    -0.78400
O149        O  0.09818237  0.13494506  0.72650794    -0.78600
C150        C  0.11155014  0.15103240  0.73746609     1.02000
Cr151      Cr  0.15187838  0.14581968  0.69995978     1.93700
Cr152      Cr  0.12656303  0.11798407  0.65688220     1.93200
Cr153      Cr  0.11456443  0.10457096  0.71186981     1.39100
O154        O  0.13107904  0.12252032  0.68949803    -1.23600
O155        O  0.28594295  0.16230843  0.86631517    -0.85900
O156        O  0.33491205  0.17060786  0.87660490    -0.82900
C157        C  0.35775886  0.16739216  0.88173314     0.97600
O158        O  0.36756523  0.14547518  0.88039775    -0.83000
O159        O  0.34459460  0.11873868  0.91928057    -0.85600
C160        C  0.32617108  0.10983504  0.93133196     1.02100
O161        O  0.30734836  0.10113716  0.91961934    -0.78400
O162        O  0.28207196  0.14299504  0.90221963    -0.78600
C163        C  0.27832486  0.16202211  0.88866109     1.02000
O164        O  0.29991263  0.12714838  0.82847938    -0.85900
O165        O  0.34962080  0.14057102  0.83454557    -0.83000
C166        C  0.35719945  0.11865600  0.82969126     0.97600
O167        O  0.35687388  0.10223290  0.84674606    -0.83000
O168        O  0.33842876  0.07519552  0.88676413    -0.85600
C169        C  0.31895739  0.06461884  0.87780310     1.02100
O170        O  0.29989292  0.07751731  0.87202700    -0.78400
O171        O  0.27101068  0.11664233  0.85568228    -0.78600
C172        C  0.27816536  0.11906063  0.83313800     1.02000
Cr173      Cr  0.31780708  0.14833041  0.85297269     1.93700
Cr174      Cr  0.34999055  0.11129682  0.88273229     1.93200
Cr175      Cr  0.29212941  0.11049740  0.88660902     1.39100
O176        O  0.32000470  0.12334369  0.87438797    -1.23600
O177        O  0.14095709  0.25734733  0.84236955    -0.85900
O178        O  0.13334983  0.30437049  0.82234119    -0.82900
C179        C  0.12842956  0.32748409  0.82046798     0.97600
O180        O  0.12886049  0.34159515  0.83983554    -0.83000
O181        O  0.08734193  0.32626603  0.86704291    -0.85600
C182        C  0.07361263  0.30978472  0.87706453     1.02100
O183        O  0.08301976  0.29328024  0.89134608    -0.78400
O184        O  0.10332195  0.25914537  0.85868838    -0.78600
C185        C  0.11884156  0.24906471  0.84400423     1.02000
O186        O  0.17639817  0.27779393  0.87670506    -0.85900
O187        O  0.17350786  0.32368308  0.85219102    -0.83000
C188        C  0.17674840  0.33628017  0.87195274     0.97600
O189        O  0.15860236  0.33966276  0.88677441    -0.83000
O190        O  0.11585030  0.32889402  0.91378373    -0.85600
C191        C  0.12300961  0.31196809  0.92905382     1.02100
O192        O  0.12804319  0.29021285  0.92121369    -0.78400
O193        O  0.14654504  0.25355152  0.89121975    -0.97800
C194        C  0.16965611  0.25877841  0.88910821     1.02000
Cr195      Cr  0.15433251  0.29150088  0.84997909     1.93700
Cr196      Cr  0.12321067  0.33196667  0.87652693     1.93200
Cr197      Cr  0.11622458  0.27596902  0.88933831     1.39100
O198        O  0.13101572  0.29984643  0.87195331    -1.23600
O199        O  0.36501566  0.31243055  0.79096277    -0.85900
O200        O  0.37268486  0.30470670  0.84064887    -0.82900
C201        C  0.37522023  0.30790563  0.86384851     0.97600
O202        O  0.37192624  0.32973442  0.87334854    -0.83000
O203        O  0.41147288  0.35727081  0.85364287    -0.85600
C204        C  0.42512757  0.36601452  0.83640553     1.02100
O205        O  0.41527989  0.37454817  0.81637708    -0.78400
O206        O  0.40007242  0.33358858  0.78851326    -0.78600
C207        C  0.38738451  0.31429650  0.78348052     1.02000
O208        O  0.32499998  0.34609192  0.80251207    -0.85900
O209        O  0.32816871  0.33332942  0.85216706    -0.83000
C210        C  0.32189005  0.35521682  0.85879589     0.97600
O211        O  0.33828121  0.37222723  0.85952898    -0.83000
O212        O  0.37917702  0.40047681  0.84492845    -0.85600
C213        C  0.37139334  0.41105316  0.82496487     1.02100
O214        O  0.36731261  0.39811698  0.80564349    -0.78400
O215        O  0.35327975  0.35927905  0.77574759    -0.78600
C216        C  0.33044831  0.35539741  0.78151879     1.02000
Cr217      Cr  0.34919633  0.32598747  0.82187206     1.93700
Cr218      Cr  0.37481219  0.36405853  0.85589861     1.93200
Cr219      Cr  0.38311055  0.36543297  0.79861375     1.39100
O220        O  0.36937601  0.35183715  0.82540859    -1.23600
O221        O  0.22976110  0.34467116  0.66442670    -0.85900
O222        O  0.18266208  0.35511863  0.68150756    -0.82900
C223        C  0.15971722  0.36087575  0.68242432     0.97600
O224        O  0.14633074  0.36078923  0.66245969    -0.83000
O225        O  0.16324701  0.40153598  0.63533160    -0.85600
C226        C  0.17980336  0.41564212  0.62603319     1.02100
O227        O  0.19924567  0.40639570  0.61556712    -0.78400
O228        O  0.23130530  0.38268465  0.64931820    -0.78600
C229        C  0.23835195  0.36663868  0.66524944     1.02000
O230        O  0.20883493  0.31170346  0.62829893    -0.85900
O231        O  0.16260549  0.31626122  0.65078085    -0.83000
C232        C  0.15147315  0.31303291  0.63020706     0.97600
O233        O  0.15010778  0.33093241  0.61493541    -0.83000
O234        O  0.16321652  0.37337345  0.58939044    -0.85600
C235        C  0.18117539  0.36784486  0.57474150     1.02100
O236        O  0.20274102  0.36284358  0.58335068    -0.78400
O237        O  0.23616431  0.33973074  0.61549220    -0.78600
C238        C  0.22930551  0.31691344  0.61772244     1.02000
Cr239      Cr  0.19549670  0.33375064  0.65455087     1.93700
Cr240      Cr  0.15797287  0.36596847  0.62605964     1.93200
Cr241      Cr  0.21539079  0.37194298  0.61707284     1.39100
O242        O  0.18966270  0.35766855  0.63246720    -1.23600
O243        O  0.34107686  0.21620410  0.64384254    -0.85900
O244        O  0.32373801  0.16824801  0.64124125    -0.82900
C245        C  0.32281055  0.14481717  0.63810397     0.97600
O246        O  0.34282749  0.13164900  0.63880881    -0.83000
O247        O  0.36966688  0.14507908  0.59588588    -0.85600
C248        C  0.38034551  0.16003292  0.58087148     1.02100
O249        O  0.39285455  0.17845989  0.58924529    -0.78400
O250        O  0.35879060  0.21317681  0.60692332    -0.78600
C251        C  0.34216980  0.22235078  0.62101590     1.02000
O252        O  0.37708143  0.20055077  0.68090549    -0.85900
O253        O  0.35487066  0.15384725  0.68259383    -0.83000
C254        C  0.37461139  0.14108732  0.68607141     0.97600
O255        O  0.38936807  0.13702674  0.66801257    -0.83000
O256        O  0.41563808  0.14608906  0.62463954    -0.85600
C257        C  0.43049080  0.16391684  0.62976230     1.02100
O258        O  0.42227635  0.18577253  0.63377897    -0.78400
O259        O  0.39071408  0.22323083  0.64955865    -0.78600
C260        C  0.38864368  0.21955802  0.67294030     1.02000
Cr261      Cr  0.35094256  0.18399918  0.66041503     1.93700
Cr262      Cr  0.37887481  0.14233082  0.63224795     1.93200
Cr263      Cr  0.38988149  0.19824435  0.62112401     1.39100
O264        O  0.37319047  0.17480984  0.63766391    -1.23600
O265        O  0.29234734  0.86070831  0.82602239    -0.85900
O266        O  0.34054626  0.84180793  0.82908283    -0.82900
C267        C  0.35413997  0.86114073  0.82849322     0.97600
O268        O  0.35478870  0.87601368  0.84697165    -0.83000
O269        O  0.33824780  0.89984468  0.89027063    -0.85600
C270        C  0.32084662  0.91434795  0.88276388     1.02100
O271        O  0.29983236  0.90552188  0.87598728    -0.78400
O272        O  0.26582200  0.87186001  0.85538631    -0.78600
C273        C  0.27139223  0.86987677  0.83236416     1.02000
O274        O  0.27585760  0.82310419  0.86004815    -0.85900
O275        O  0.32450281  0.80811523  0.86726367    -0.83000
C276        C  0.34770976  0.80851402  0.87194339     0.97600
O277        O  0.35919030  0.82923906  0.87402464    -0.83000
O278        O  0.33880125  0.85266746  0.91632191    -0.85600
C279        C  0.32146823  0.86197083  0.92967450     1.02100
O280        O  0.30392770  0.87475003  0.91983910    -0.78400
O281        O  0.27383053  0.83886616  0.89784596    -0.78600
C282        C  0.26850828  0.82162012  0.88244317     1.02000
Cr283      Cr  0.30876063  0.83517763  0.84745886     1.93700
Cr284      Cr  0.34533268  0.86394191  0.88125678     1.93200
Cr285      Cr  0.28783090  0.87176995  0.88617321     1.39100
O286        O  0.31402320  0.85707839  0.87169265    -1.23600
O287        O  0.16681033  0.71255018  0.86287951    -0.85900
O288        O  0.18652913  0.66620630  0.86788159    -0.82900
C289        C  0.18909906  0.64330805  0.87296399     0.97600
O290        O  0.17059061  0.62837734  0.87059158    -0.83000
O291        O  0.14009955  0.64176485  0.91026691    -0.85600
C292        C  0.12763636  0.65634921  0.92426709     1.02100
O293        O  0.11381488  0.67331409  0.91468633    -0.78400
O294        O  0.14758735  0.70924439  0.89891809    -0.78600
C295        C  0.16476430  0.71861728  0.88571153     1.02000
O296        O  0.13474825  0.69453343  0.82356443    -0.85900
O297        O  0.15951945  0.64872328  0.82467754    -0.83000
C298        C  0.14123905  0.63422218  0.82063963     0.97600
O299        O  0.12571186  0.62975327  0.83784759    -0.83000
O300        O  0.09536136  0.63936651  0.87863581    -0.85600
C301        C  0.07999842  0.65641124  0.87169138     1.02100
O302        O  0.08762277  0.67842402  0.86768721    -0.78400
O303        O  0.11829933  0.71727054  0.85368687    -0.78600
C304        C  0.12270669  0.71379305  0.83052482     1.02000
Cr305      Cr  0.16010727  0.67960843  0.84628627     1.93700
Cr306      Cr  0.13320228  0.63716204  0.87384319     1.93200
Cr307      Cr  0.11816410  0.69272663  0.88265652     1.39100
O308        O  0.13706140  0.66974143  0.86768440    -1.23600
O309        O  0.14842285  0.81453560  0.71152572    -0.85900
O310        O  0.13499480  0.80650473  0.66249032    -0.82900
C311        C  0.12884389  0.80996120  0.63992443     0.97600
O312        O  0.13038860  0.83179215  0.63004431    -0.83000
O313        O  0.09225462  0.86036442  0.65035573    -0.85600
C314        C  0.07864836  0.86474211  0.66920466     1.02100
O315        O  0.08811333  0.86933025  0.69058194    -0.78400
O316        O  0.11110000  0.83063490  0.71601153    -0.78600
C317        C  0.12667182  0.81329536  0.72048920     1.02000
O318        O  0.18282858  0.85141556  0.69604746    -0.85900
O319        O  0.17608500  0.83603262  0.64648453    -0.83000
C320        C  0.18094267  0.85764450  0.63854763     0.97600
O321        O  0.16474888  0.87474913  0.64085849    -0.83000
O322        O  0.12482471  0.90258979  0.65835089    -0.85600
C323        C  0.12904895  0.91315313  0.67929389     1.02100
O324        O  0.13176356  0.90016940  0.69889356    -0.78400
O325        O  0.15509174  0.86252412  0.72479967    -0.78600
C326        C  0.17779336  0.86058698  0.71737154     1.02000
Cr327      Cr  0.15875251  0.82916188  0.67892751     1.93700
Cr328      Cr  0.12874618  0.86636426  0.64715133     1.93200
Cr329      Cr  0.12249360  0.86481407  0.70531387     1.39100
O330        O  0.13622768  0.85372141  0.67718250    -1.23600
O331        O  0.32779995  0.62035536  0.78857672    -0.85900
O332        O  0.33174784  0.63724626  0.83728458    -0.82900
C333        C  0.32938000  0.61687154  0.84914206     0.97600
O334        O  0.34756008  0.60153053  0.85058947    -0.83000
O335        O  0.39019815  0.57575119  0.83564210    -0.85600
C336        C  0.38076544  0.56131074  0.81929715     1.02100
O337        O  0.37366848  0.57018795  0.79839827    -0.78400
O338        O  0.35662426  0.60528335  0.76336149    -0.78600
C339        C  0.33381129  0.60996123  0.76815479     1.02000
O340        O  0.36552043  0.65501346  0.77372077    -0.85900
O341        O  0.37294391  0.66860640  0.82221193    -0.83000
C342        C  0.37616633  0.66773666  0.84552830     0.97600
O343        O  0.37672543  0.64675170  0.85665499    -0.83000
O344        O  0.41851861  0.62153047  0.83560191    -0.85600
C345        C  0.43112044  0.61038809  0.81869125     1.02100
O346        O  0.42000946  0.59745121  0.80213356    -0.78400
O347        O  0.40115991  0.63430243  0.77055340    -0.78600
C348        C  0.38747236  0.65303678  0.76502983     1.02000
Cr349      Cr  0.35123053  0.64343558  0.80591829     1.93700
Cr350      Cr  0.38269831  0.61202731  0.84236500     1.93200
Cr351      Cr  0.38685215  0.60293039  0.78558480     1.39100
O352        O  0.37363511  0.61947460  0.81119297    -1.23600
O353        O  0.35277239  0.77837349  0.67568805    -0.85900
O354        O  0.36657544  0.82587161  0.68860746    -0.82900
C355        C  0.37301026  0.84856428  0.68779119     0.97600
O356        O  0.37329796  0.86010918  0.66693968    -0.83000
O357        O  0.41172988  0.83589723  0.64052433    -0.85600
C358        C  0.42305790  0.81725431  0.63093417     1.02100
O359        O  0.41092164  0.80008284  0.61971706    -0.78400
O360        O  0.38824939  0.77197051  0.65609032    -0.78600
C361        C  0.37406943  0.76790598  0.67450586     1.02000
O362        O  0.31702426  0.79828322  0.64093505    -0.85900
O363        O  0.32698522  0.84617209  0.65841172    -0.83000
C364        C  0.32453602  0.85733108  0.63772075     0.97600
O365        O  0.34198741  0.85648973  0.62177888    -0.83000
O366        O  0.38247234  0.83725635  0.59531536    -0.85600
C367        C  0.37321008  0.82014703  0.58160387     1.02100
O368        O  0.36460014  0.80043366  0.59140724    -0.78400
O369        O  0.34253466  0.76930428  0.62616094    -0.78600
C370        C  0.32036976  0.77735899  0.63018811     1.02000
Cr371      Cr  0.34254976  0.81242528  0.66402184     1.93700
Cr372      Cr  0.37649783  0.84524694  0.63177238     1.93200
Cr373      Cr  0.37574426  0.78756291  0.62443624     1.39100
O374        O  0.36507291  0.81499850  0.63997240    -1.23600
O375        O  0.21473897  0.66528225  0.63987126    -0.85900
O376        O  0.16526709  0.67324471  0.62731394    -0.82900
C377        C  0.14222036  0.67003722  0.62296851     0.97600
O378        O  0.13248860  0.64826126  0.62516623    -0.83000
O379        O  0.15357117  0.62072546  0.58664993    -0.85600
C380        C  0.17187286  0.61446876  0.57284243     1.02100
O381        O  0.19280428  0.60776726  0.58238556    -0.78400
O382        O  0.21936138  0.64712267  0.60359977    -0.78600
C383        C  0.22434737  0.66491524  0.61837821     1.02000
O384        O  0.19956013  0.62988653  0.67599340    -0.85900
O385        O  0.15023962  0.64460191  0.66951393    -0.83000
C386        C  0.14207654  0.62325011  0.67518495     0.97600
O387        O  0.14377062  0.60562070  0.65939304    -0.83000
O388        O  0.16100736  0.57755581  0.61854353    -0.85600
C389        C  0.18180114  0.56669712  0.62326048     1.02100
O390        O  0.20123006  0.57936863  0.62762827    -0.78400
O391        O  0.22818986  0.61723002  0.64885841    -0.78600
C392        C  0.22083140  0.62032737  0.67141360     1.02000
Cr393      Cr  0.18226066  0.65126030  0.65142921     1.93700
Cr394      Cr  0.14992052  0.61385044  0.62304042     1.93200
Cr395      Cr  0.20812952  0.61383314  0.61658257     1.39100
O396        O  0.18018922  0.62603830  0.63002793    -1.23600
O397        O  0.83334178  0.85276017  0.72284838    -0.85900
O398        O  0.82256071  0.86337901  0.67414829    -0.82900
C399        C  0.82440812  0.86724830  0.65101573     0.97600
O400        O  0.84590561  0.86657868  0.64050695    -0.83000
O401        O  0.87228667  0.90641486  0.66252507    -0.85600
C402        C  0.88091077  0.91871470  0.68096307     1.02100
O403        O  0.89169813  0.90754124  0.69908587    -0.78400
O404        O  0.85321286  0.88836018  0.72717579    -0.78600
C405        C  0.83465907  0.87460519  0.73204022     1.02000
O406        O  0.86841561  0.81522501  0.70662292    -0.85900
O407        O  0.85293135  0.82166538  0.65795335    -0.83000
C408        C  0.87463248  0.81746084  0.64943777     0.97600
O409        O  0.89061619  0.83485944  0.64918156    -0.83000
O410        O  0.91726522  0.87570119  0.66599483    -0.85600
C411        C  0.92932779  0.86621524  0.68427888     1.02100
O412        O  0.91793799  0.86021070  0.70400741    -0.78400
O413        O  0.88159945  0.84215232  0.73486326    -0.78600
C414        C  0.87854213  0.81962927  0.72757164     1.02000
Cr415      Cr  0.84607481  0.83985434  0.69014569     1.93700
Cr416      Cr  0.88074208  0.87035781  0.65655155     1.93200
Cr417      Cr  0.88513202  0.87378118  0.71423095     1.39100
O418        O  0.87062716  0.86163911  0.68703361    -1.23600
O419        O  0.86429227  0.71404958  0.83712282    -0.85900
O420        O  0.87056888  0.66559086  0.82215207    -0.82900
C421        C  0.87453657  0.64228329  0.82218412     0.97600
O422        O  0.87414849  0.63012807  0.84268730    -0.83000
O423        O  0.91658215  0.64751833  0.86749435    -0.85600
C424        C  0.93067842  0.66441625  0.87636164     1.02100
O425        O  0.92174883  0.68210991  0.88960207    -0.78400
O426        O  0.90127797  0.71501930  0.85532931    -0.78600
C427        C  0.88641172  0.72238947  0.83836310     1.02000
O428        O  0.82834540  0.69867867  0.87337569    -0.85900
O429        O  0.83014373  0.65020523  0.85421293    -0.83000
C430        C  0.82750298  0.63890952  0.87480626     0.97600
O431        O  0.84596813  0.63654174  0.88951299    -0.83000
O432        O  0.88951488  0.64874465  0.91444075    -0.85600
C433        C  0.88259096  0.66638466  0.92890297     1.02100
O434        O  0.87738537  0.68776727  0.92009317    -0.78400
O435        O  0.85868821  0.72293768  0.88714896    -0.78600
C436        C  0.83547082  0.71874309  0.88387691     1.02000
Cr437      Cr  0.85010694  0.68151305  0.84850153     1.93700
Cr438      Cr  0.88102097  0.64301823  0.87801989     1.93200
Cr439      Cr  0.88866164  0.69990137  0.88696921     1.39100
O440        O  0.87343563  0.67488812  0.87120072    -1.23600
O441        O  0.70238007  0.81296444  0.86909121    -0.85900
O442        O  0.65278553  0.81806383  0.85603826    -0.82900
C443        C  0.64665061  0.81450425  0.87851386     0.97600
O444        O  0.64738083  0.83271466  0.89360743    -0.83000
O445        O  0.66481424  0.87540664  0.91666271    -0.85600
C446        C  0.68476552  0.86841655  0.92782242     1.02100
O447        O  0.70417787  0.86301532  0.91539441    -0.78400
O448        O  0.73160285  0.84062988  0.87818031    -0.78600
C449        C  0.72412317  0.81790818  0.87703736     1.02000
O450        O  0.71632652  0.84686291  0.83071044    -0.85900
O451        O  0.66700869  0.85746348  0.82265424    -0.83000
C452        C  0.64426694  0.86306637  0.82581059     0.97600
O453        O  0.63469304  0.86258651  0.84772853    -0.83000
O454        O  0.65709639  0.90332958  0.87084175    -0.85600
C455        C  0.67533450  0.91723423  0.87702812     1.02100
O456        O  0.69574313  0.90763634  0.88522494    -0.78400
O457        O  0.72110475  0.88444050  0.84633532    -0.78600
C458        C  0.72475312  0.86886195  0.82888098     1.02000
Cr459      Cr  0.68447393  0.83559108  0.84631732     1.93700
Cr460      Cr  0.65299032  0.86783693  0.88133853     1.93200
Cr461      Cr  0.71105696  0.87302575  0.88050269     1.39100
O462        O  0.68292308  0.85920338  0.86945694    -1.23600
O463        O  0.78251181  0.63643725  0.67124214    -0.85900
O464        O  0.83184590  0.62757870  0.68190964    -0.82900
C465        C  0.85516425  0.62433403  0.67981537     0.97600
O466        O  0.86548270  0.62573170  0.65832568    -0.83000
O467        O  0.84488047  0.58539139  0.63207237    -0.85600
C468        C  0.82756951  0.57196031  0.62286389     1.02100
O469        O  0.80835358  0.58216794  0.61278536    -0.78400
O470        O  0.77931910  0.60075384  0.65107438    -0.78600
C471        C  0.77378454  0.61450335  0.66945199     1.02000
O472        O  0.79705664  0.67433452  0.63662357    -0.85900
O473        O  0.84604749  0.66993363  0.65190538    -0.83000
C474        C  0.85490211  0.67431417  0.63044837     0.97600
O475        O  0.85511744  0.65716972  0.61410108    -0.83000
O476        O  0.83976895  0.61548922  0.58731205    -0.85600
C477        C  0.82063965  0.62333431  0.57530079     1.02100
O478        O  0.80095494  0.62938220  0.58683708    -0.78400
O479        O  0.76952644  0.64678681  0.62323216    -0.78600
C480        C  0.77607607  0.66949997  0.62671564     1.02000
Cr481      Cr  0.81463691  0.65045980  0.65865578     1.93700
Cr482      Cr  0.84923405  0.62144785  0.62369346     1.93200
Cr483      Cr  0.79160653  0.61566617  0.61949742     1.39100
O484        O  0.81842375  0.62888458  0.63396631    -1.23600
O485        O  0.64527129  0.66523496  0.78678444    -0.85900
O486        O  0.63592639  0.67533767  0.83566444    -0.82900
C487        C  0.63081926  0.67303646  0.85848663     0.97600
O488        O  0.63318054  0.65173720  0.86927041    -0.83000
O489        O  0.59457955  0.62453510  0.84810224    -0.85600
C490        C  0.58141071  0.61558202  0.83053279     1.02100
O491        O  0.59180891  0.60567901  0.81142647    -0.78400
O492        O  0.61004773  0.64443001  0.78296515    -0.78600
C493        C  0.62344269  0.66305723  0.77757336     1.02000
O494        O  0.68369020  0.63071023  0.80235517    -0.85900
O495        O  0.67847731  0.64555960  0.85103578    -0.83000
C496        C  0.68339044  0.62373863  0.85895873     0.97600
O497        O  0.66629422  0.60750146  0.85933794    -0.83000
O498        O  0.62571887  0.57992289  0.84319842    -0.85600
C499        C  0.63455015  0.56831317  0.82427756     1.02100
O500        O  0.63993891  0.58026583  0.80476134    -0.78400
O501        O  0.65663547  0.61722936  0.77430517    -0.78600
C502        C  0.67918490  0.62083417  0.78139050     1.02000
Cr503      Cr  0.65930315  0.65242979  0.81921363     1.93700
Cr504      Cr  0.63053569  0.61670272  0.85299567     1.93200
Cr505      Cr  0.62541198  0.61288692  0.79545194     1.39100
O506        O  0.63803861  0.62741867  0.82248158    -1.23600
O507        O  0.66739694  0.77658488  0.64839990    -0.85900
O508        O  0.68171733  0.82436226  0.63790380    -0.82900
C509        C  0.68145444  0.84753685  0.63348207     0.97600
O510        O  0.66076895  0.85963915  0.63405752    -0.83000
O511        O  0.63211647  0.83849527  0.59464150    -0.85600
C512        C  0.62027896  0.82132143  0.58309913     1.02100
O513        O  0.60861246  0.80462275  0.59531815    -0.78400
O514        O  0.64488118  0.77273297  0.61414781    -0.78600
C515        C  0.66380825  0.76671098  0.62713906     1.02000
O516        O  0.63466748  0.79571029  0.68665152    -0.85900
O517        O  0.65305179  0.84284269  0.67991219    -0.83000
C518        C  0.63272799  0.85469376  0.68344031     0.97600
O519        O  0.61647840  0.85596553  0.66615570    -0.83000
O520        O  0.58775573  0.84044351  0.62565607    -0.85600
C521        C  0.57361456  0.82357303  0.63458708     1.02100
O522        O  0.58296898  0.80319623  0.64237786    -0.78400
O523        O  0.61752033  0.76880118  0.66066338    -0.78600
C524        C  0.62281743  0.77563624  0.68285373     1.02000
Cr525      Cr  0.65730460  0.81025757  0.66154605     1.93700
Cr526      Cr  0.62491690  0.84641571  0.63078181     1.93200
Cr527      Cr  0.61481835  0.78937758  0.62900306     1.39100
O528        O  0.63234957  0.81526373  0.64025892    -1.23600
O529        O  0.86872645  0.26944467  0.16124070    -0.85900
O530        O  0.87500007  0.31806814  0.17472478    -0.82900
C531        C  0.87917253  0.34127565  0.17356408     0.97600
O532        O  0.87696967  0.35276986  0.15276505    -0.83000
O533        O  0.91611454  0.33349473  0.12342825    -0.85600
C534        C  0.92845727  0.31701592  0.11142107     1.02100
O535        O  0.91704419  0.29963256  0.10004820    -0.78400
O536        O  0.90343589  0.26880261  0.13912486    -0.78600
C537        C  0.89107741  0.26203280  0.15803182     1.02000
O538        O  0.82772986  0.28333173  0.12917620    -0.85900
O539        O  0.83081690  0.33208915  0.14688351    -0.83000
C540        C  0.82609402  0.34391478  0.12692148     0.97600
O541        O  0.84277634  0.34609541  0.11023685    -0.83000
O542        O  0.88288118  0.33147683  0.07999703    -0.85600
C543        C  0.87517888  0.31276834  0.06730967     1.02100
O544        O  0.86892822  0.29278532  0.07817954    -0.78400
O545        O  0.85692379  0.25842940  0.11416646    -0.78600
C546        C  0.83401559  0.26302025  0.11856726     1.02000
Cr547      Cr  0.85204531  0.30128237  0.15107791     1.93700
Cr548      Cr  0.87918527  0.33880928  0.11724102     1.93200
Cr549      Cr  0.88560176  0.28191475  0.10912780     1.39100
O550        O  0.87234904  0.30739281  0.12582032    -1.23600
O551        O  0.79104245  0.35543914  0.31885968    -0.85900
O552        O  0.84104605  0.36504107  0.31104267    -0.82900
C553        C  0.86437496  0.36716540  0.31424766     0.97600
O554        O  0.87377679  0.36533166  0.33626583    -0.83000
O555        O  0.85364739  0.40564192  0.36297452    -0.85600
C556        C  0.83554849  0.41949914  0.36983726     1.02100
O557        O  0.81494277  0.41020594  0.37734885    -0.78400
O558        O  0.78687194  0.39121446  0.33852229    -0.78600
C559        C  0.78118136  0.37695922  0.32056407     1.02000
O560        O  0.80491474  0.31787336  0.35412665    -0.85900
O561        O  0.85427867  0.32210177  0.34074706    -0.83000
C562        C  0.86088672  0.31646017  0.36272382     0.97600
O563        O  0.86054627  0.33315367  0.37950747    -0.83000
O564        O  0.84555553  0.37499534  0.40662860    -0.85600
C565        C  0.82546067  0.36813536  0.41735809     1.02100
O566        O  0.80603815  0.36402978  0.40456053    -0.78400
O567        O  0.77725267  0.34589670  0.36701038    -0.78600
C568        C  0.78422643  0.32315961  0.36437599     1.02000
Cr569      Cr  0.82303549  0.34180138  0.33296357     1.93700
Cr570      Cr  0.85631400  0.36933356  0.37041387     1.93200
Cr571      Cr  0.79848546  0.37696603  0.37093781     1.39100
O572        O  0.82585126  0.36318412  0.35809037    -1.23600
O573        O  0.83647735  0.13564109  0.27096378    -0.85900
O574        O  0.82385416  0.12469454  0.31877846    -0.82900
C575        C  0.82513299  0.11826375  0.34140743     0.97600
O576        O  0.84596371  0.11957887  0.35330115    -0.83000
O577        O  0.87522535  0.08165073  0.33165960    -0.85600
C578        C  0.88554801  0.06999189  0.31366322     1.02100
O579        O  0.89623226  0.08195880  0.29626170    -0.78400
O580        O  0.85665840  0.09983655  0.26807951    -0.78600
C581        C  0.83771681  0.11327625  0.26312943     1.02000
O582        O  0.87005732  0.17348632  0.28910273    -0.85900
O583        O  0.85223182  0.16618132  0.33703406    -0.83000
C584        C  0.87354514  0.17080107  0.34620697     0.97600
O585        O  0.88982688  0.15355616  0.34728147    -0.83000
O586        O  0.91880584  0.11428794  0.33058809    -0.85600
C587        C  0.93122642  0.12340551  0.31244329     1.02100
O588        O  0.92015118  0.12970839  0.29247511    -0.78400
O589        O  0.88342202  0.14657757  0.26091869    -0.78600
C590        C  0.88075667  0.16901483  0.26849306     1.02000
Cr591      Cr  0.84744611  0.14854088  0.30427397     1.93700
Cr592      Cr  0.88171324  0.11791543  0.33880610     1.93200
Cr593      Cr  0.88797453  0.11530490  0.28139127     1.39100
O594        O  0.87237272  0.12695017  0.30818570    -1.23600
O595        O  0.70373298  0.16705606  0.13363434    -0.85900
O596        O  0.65785847  0.15817134  0.15423612    -0.82900
C597        C  0.64431221  0.16179933  0.13504705     0.97600
O598        O  0.64320659  0.14532077  0.11798807    -0.83000
O599        O  0.65879170  0.10600760  0.08732838    -0.85600
C600        C  0.67420670  0.11699203  0.07301051     1.02100
O601        O  0.69480928  0.12478857  0.08165137    -0.78400
O602        O  0.73058579  0.14225388  0.11454072    -0.78600
C603        C  0.72347903  0.16412810  0.12101715     1.02000
O604        O  0.72586300  0.12810509  0.16357334    -0.85900
O605        O  0.67921092  0.11564463  0.18024974    -0.83000
C606        C  0.65597782  0.11162389  0.18110137     0.97600
O607        O  0.64302824  0.11211391  0.16103724    -0.83000
O608        O  0.66413626  0.07435473  0.13092379    -0.85600
C609        C  0.68093984  0.06316978  0.11827526     1.02100
O610        O  0.69634465  0.07574370  0.10520844    -0.78400
O611        O  0.72949022  0.09455100  0.13991415    -0.78600
C612        C  0.73616947  0.10721547  0.15872737     1.02000
Cr613      Cr  0.69127522  0.14065992  0.15605713     1.93700
Cr614      Cr  0.65449367  0.11003557  0.12475133     1.93200
Cr615      Cr  0.71083906  0.11006530  0.11162735     1.39100
O616        O  0.68564106  0.12010392  0.13081910    -1.23600
O617        O  0.64247998  0.32130189  0.21590143    -0.85900
O618        O  0.63076232  0.30612505  0.16838266    -0.82900
C619        C  0.62733265  0.30546864  0.14506522     0.97600
O620        O  0.63018572  0.32539905  0.13218732    -0.83000
O621        O  0.59201280  0.35574736  0.15039506    -0.85600
C622        C  0.57915643  0.36691930  0.16694374     1.02100
O623        O  0.58980982  0.37877741  0.18477991    -0.78400
O624        O  0.60854607  0.34440684  0.21847767    -0.78600
C625        C  0.62122767  0.32563078  0.22545574     1.02000
O626        O  0.68153109  0.35162534  0.19589321    -0.85900
O627        O  0.67465529  0.33132906  0.14953045    -0.83000
C628        C  0.68005183  0.35102799  0.13757022     0.97600
O629        O  0.66416051  0.36872882  0.13614953    -0.83000
O630        O  0.62288343  0.39961144  0.14885613    -0.85600
C631        C  0.63026549  0.41412328  0.16627398     1.02100
O632        O  0.63748224  0.40495159  0.18683057    -0.78400
O633        O  0.65603947  0.37161626  0.22158599    -0.78600
C634        C  0.67816500  0.36522609  0.21494923     1.02000
Cr635      Cr  0.65574726  0.32952525  0.18197580     1.93700
Cr636      Cr  0.62798151  0.36197914  0.14414956     1.93200
Cr637      Cr  0.62386743  0.37358455  0.20094858     1.39100
O638        O  0.63566764  0.35519064  0.17583593    -1.23600
O639        O  0.68224778  0.20502015  0.36796575    -0.85900
O640        O  0.68363813  0.15548985  0.35216258    -0.82900
C641        C  0.68726738  0.14531382  0.37317706     0.97600
O642        O  0.66961953  0.14444583  0.38887154    -0.83000
O643        O  0.62641497  0.15803807  0.41400990    -0.85600
C644        C  0.63186056  0.17804768  0.42575631     1.02100
O645        O  0.63448477  0.19845288  0.41409614    -0.78400
O646        O  0.65064911  0.22996984  0.37733424    -0.78600
C647        C  0.67412733  0.22581688  0.37609178     1.02000
O648        O  0.64581154  0.21595828  0.33015659    -0.85900
O649        O  0.64223800  0.16585839  0.31966150    -0.83000
C650        C  0.63959044  0.14251913  0.32224290     0.97600
O651        O  0.64007772  0.13257924  0.34393794    -0.83000
O652        O  0.59727101  0.14969729  0.36889416    -0.85600
C653        C  0.58199334  0.16609110  0.37699965     1.02100
O654        O  0.59001712  0.18670895  0.38578104    -0.78400
O655        O  0.60814983  0.21567674  0.34645840    -0.78600
C656        C  0.62284858  0.22187796  0.32899876     1.02000
Cr657      Cr  0.66171950  0.18514469  0.34433891     1.93700
Cr658      Cr  0.63366883  0.14851954  0.37808805     1.93200
Cr659      Cr  0.62197616  0.20563146  0.37999975     1.39100
O660        O  0.63882546  0.17969428  0.36749929    -1.23600
O661        O  0.86431242  0.82516486  0.28037936    -0.85900
O662        O  0.87119093  0.81303249  0.32943861    -0.82900
C663        C  0.87482215  0.81433699  0.35272419     0.97600
O664        O  0.87282131  0.83532062  0.36406202    -0.83000
O665        O  0.91448782  0.86194610  0.34804885    -0.85600
C666        C  0.92938170  0.86978941  0.33137053     1.02100
O667        O  0.92106979  0.87897335  0.31099683    -0.78400
O668        O  0.90131546  0.84266208  0.27981917    -0.78600
C669        C  0.88671106  0.82535580  0.27297476     1.02000
O670        O  0.82774569  0.86125797  0.29383532    -0.85900
O671        O  0.82906106  0.84365871  0.34275028    -0.83000
C672        C  0.82449600  0.86476266  0.35241139     0.97600
O673        O  0.84188110  0.88067496  0.35422240    -0.83000
O674        O  0.88490254  0.90661741  0.34267472    -0.85600
C675        C  0.88071837  0.91993055  0.32347973     1.02100
O676        O  0.87734909  0.90986493  0.30229310    -0.78400
O677        O  0.85813750  0.87467031  0.26940663    -0.78600
C678        C  0.83486186  0.87118924  0.27355706     1.02000
Cr679      Cr  0.84986698  0.83772265  0.31219360     1.93700
Cr680      Cr  0.87799595  0.87041520  0.34987157     1.93200
Cr681      Cr  0.88823380  0.87549894  0.29270641     1.39100
O682        O  0.87230072  0.86141251  0.31819770    -1.23600
O683        O  0.83298673  0.71337999  0.14630674    -0.85900
O684        O  0.81620216  0.66739612  0.13387900    -0.82900
C685        C  0.81504865  0.64512359  0.12616787     0.97600
O686        O  0.83448976  0.63098399  0.12695485    -0.83000
O687        O  0.86508296  0.65127649  0.08992636    -0.85600
C688        C  0.87667500  0.66875257  0.07890884     1.02100
O689        O  0.88937338  0.68453851  0.09131598    -0.78400
O690        O  0.85350217  0.71558761  0.11095545    -0.78600
C691        C  0.83511372  0.72193076  0.12437637     1.02000
O692        O  0.86516392  0.69131591  0.18351040    -0.85900
O693        O  0.84309396  0.64522700  0.17453335    -0.83000
C694        C  0.86263148  0.63217065  0.17788175     0.97600
O695        O  0.87886505  0.63046346  0.16072639    -0.83000
O696        O  0.90926606  0.64680743  0.12155584    -0.85600
C697        C  0.92395701  0.66354373  0.13029897     1.02100
O698        O  0.91507607  0.68397809  0.13850220    -0.78400
O699        O  0.88154499  0.71859030  0.15759760    -0.78600
C700        C  0.87704794  0.71142233  0.17980541     1.02000
Cr701      Cr  0.84127325  0.67879740  0.15801396     1.93700
Cr702      Cr  0.87150755  0.64196851  0.12565652     1.93200
Cr703      Cr  0.88356209  0.69872132  0.12546009     1.39100
O704        O  0.86558603  0.67310098  0.13628062    -1.23600
O705        O  0.71886828  0.83868666  0.16815215    -0.85900
O706        O  0.67193071  0.85008344  0.18439674    -0.82900
C707        C  0.64968249  0.85814028  0.18498274     0.97600
O708        O  0.63649340  0.85923396  0.16492680    -0.83000
O709        O  0.65650360  0.89953393  0.13928388    -0.85600
C710        C  0.67386388  0.91277166  0.13009419     1.02100
O711        O  0.69252255  0.90245132  0.11936429    -0.78400
O712        O  0.72181864  0.87718063  0.15459677    -0.78600
C713        C  0.72727917  0.86063080  0.17067813     1.02000
O714        O  0.69777808  0.80721541  0.13055459    -0.85900
O715        O  0.65085788  0.81339029  0.15210517    -0.83000
C716        C  0.64026997  0.81131125  0.13111270     0.97600
O717        O  0.63961417  0.83002048  0.11670953    -0.83000
O718        O  0.65590096  0.87244366  0.09244072    -0.85600
C719        C  0.67394381  0.86606998  0.07817314     1.02100
O720        O  0.69475066  0.85912695  0.08735825    -0.78400
O721        O  0.72649452  0.83475546  0.12003922    -0.78600
C722        C  0.71889333  0.81213598  0.12110721     1.02000
Cr723      Cr  0.68446622  0.82914085  0.15713117     1.93700
Cr724      Cr  0.64920409  0.86442356  0.12889383     1.93200
Cr725      Cr  0.70692166  0.86746143  0.12141130     1.39100
O726        O  0.68018897  0.85405295  0.13573139    -1.23600
O727        O  0.62902344  0.77859444  0.33291413    -0.85900
O728        O  0.65038332  0.82556666  0.33000013    -0.82900
C729        C  0.63010540  0.83750845  0.32688134     0.97600
O730        O  0.61597378  0.84171860  0.34534311    -0.83000
O731        O  0.59091475  0.83221718  0.38910158    -0.85600
C732        C  0.57644090  0.81382777  0.38454376     1.02100
O733        O  0.58530014  0.79204672  0.38108317    -0.78400
O734        O  0.61806419  0.75529835  0.36485214    -0.78600
C735        C  0.61931189  0.75876381  0.34129981     1.02000
O736        O  0.66620161  0.76401760  0.36884267    -0.85900
O737        O  0.68291667  0.81191031  0.37040876    -0.83000
C738        C  0.68365332  0.83511721  0.37471420     0.97600
O739        O  0.66365160  0.84838969  0.37373313    -0.83000
O740        O  0.63781461  0.83508177  0.41683527    -0.85600
C741        C  0.62746461  0.82047959  0.43232695     1.02100
O742        O  0.61541117  0.80148769  0.42454377    -0.78400
O743        O  0.65124374  0.76843039  0.40669099    -0.78600
C744        C  0.66812173  0.76048310  0.39213561     1.02000
Cr745      Cr  0.65547353  0.79574659  0.35219485     1.93700
Cr746      Cr  0.62760493  0.83707945  0.38079839     1.93200
Cr747      Cr  0.61862173  0.78103051  0.39303893     1.39100
O748        O  0.63382704  0.80473538  0.37553930    -1.23600
O749        O  0.78091622  0.66522165  0.37151319    -0.85900
O750        O  0.83121233  0.67574762  0.37411957    -0.82900
C751        C  0.85476137  0.67342057  0.37404448     0.97600
O752        O  0.86481996  0.65195679  0.37055989    -0.83000
O753        O  0.84947578  0.62422941  0.41169847    -0.85600
C754        C  0.83336486  0.61529453  0.42651956     1.02100
O755        O  0.81394667  0.60430073  0.41821735    -0.78400
O756        O  0.78224701  0.64280917  0.40585086    -0.78600
C757        C  0.77413336  0.66148283  0.39387946     1.02000
O758        O  0.79089864  0.63231730  0.33023391    -0.85900
O759        O  0.83974618  0.64768719  0.32878486    -0.83000
C760        C  0.85035586  0.62723911  0.32274218     0.97600
O761        O  0.85199221  0.60956953  0.33843862    -0.83000
O762        O  0.84134595  0.58045947  0.38032976    -0.85600
C763        C  0.82162045  0.56876449  0.37384255     1.02100
O764        O  0.80121855  0.58043987  0.37123403    -0.78400
O765        O  0.76767704  0.61716685  0.36051392    -0.78600
C766        C  0.77136157  0.62118806  0.33741478     1.02000
Cr767      Cr  0.81117827  0.65341098  0.35264561     1.93700
Cr768      Cr  0.84964564  0.61721333  0.37512243     1.93200
Cr769      Cr  0.79328883  0.61225876  0.38784813     1.39100
O770        O  0.81801701  0.62763984  0.37208400    -1.23600
O771        O  0.68016128  0.62392314  0.20219358    -0.85900
O772        O  0.67039981  0.64194900  0.15459798    -0.82900
C773        C  0.67393361  0.62070680  0.14476814     0.97600
O774        O  0.65659107  0.60469871  0.14546265    -0.83000
O775        O  0.61738475  0.57714119  0.16453678    -0.85600
C776        C  0.62669502  0.56464679  0.18268128     1.02100
O777        O  0.63356394  0.57577934  0.20243762    -0.78400
O778        O  0.65462783  0.61200188  0.23208745    -0.78600
C779        C  0.67674757  0.61502518  0.22378419     1.02000
O780        O  0.64523506  0.65935301  0.22235558    -0.85900
O781        O  0.63124372  0.67190579  0.17533425    -0.83000
C782        C  0.62274789  0.67080494  0.15337427     0.97600
O783        O  0.62301116  0.65002980  0.14127237    -0.83000
O784        O  0.58606427  0.62205661  0.16443041    -0.85600
C785        C  0.57479384  0.61327778  0.18328758     1.02100
O786        O  0.58693819  0.60297772  0.20098003    -0.78400
O787        O  0.60882013  0.64136936  0.22774203    -0.78600
C788        C  0.62360518  0.65933448  0.23199040     1.02000
Cr789      Cr  0.65515408  0.64742987  0.18835673     1.93700
Cr790      Cr  0.62160703  0.61418622  0.15590107     1.93200
Cr791      Cr  0.62170744  0.60901549  0.21370824     1.39100
O792        O  0.63247907  0.62349305  0.18599769    -1.23600
O793        O  0.21599786  0.31447932  0.35466958    -0.85900
O794        O  0.16908047  0.30575420  0.37329148    -0.82900
C795        C  0.14641422  0.30846940  0.37935957     0.97600
O796        O  0.13617839  0.33021882  0.37878505    -0.83000
O797        O  0.16261943  0.35900782  0.41395951    -0.85600
C798        C  0.18270513  0.36687420  0.42408190     1.02100
O799        O  0.20067258  0.37477630  0.41075955    -0.78400
O800        O  0.22391771  0.33338528  0.38993785    -0.78600
C801        C  0.22631774  0.31444661  0.37587426     1.02000
O802        O  0.19549506  0.34738934  0.31876316    -0.85900
O803        O  0.14780620  0.33287677  0.33248935    -0.83000
C804        C  0.13874848  0.35409660  0.32737994     0.97600
O805        O  0.14155810  0.37197003  0.34275092    -0.83000
O806        O  0.16399360  0.40115582  0.37981532    -0.85600
C807        C  0.18244708  0.41202349  0.36944903     1.02100
O808        O  0.20154972  0.39953825  0.36287769    -0.78400
O809        O  0.22704631  0.36033730  0.34222793    -0.78600
C810        C  0.21718814  0.35669098  0.32076683     1.02000
Cr811      Cr  0.18202874  0.32703248  0.34637258     1.93700
Cr812      Cr  0.15303325  0.36478995  0.37812013     1.93200
Cr813      Cr  0.21119113  0.36607754  0.37588725     1.39100
O814        O  0.18212287  0.35292651  0.36698382    -1.23600
O815        O  0.32653991  0.35154351  0.20699273    -0.85900
O816        O  0.33477180  0.33427164  0.15873338    -0.82900
C817        C  0.32823196  0.35538446  0.15037445     0.97600
O818        O  0.34415307  0.37285748  0.15000681    -0.83000
O819        O  0.38313030  0.40310848  0.16606082    -0.85600
C820        C  0.37567694  0.41511503  0.18526676     1.02100
O821        O  0.37016917  0.40359748  0.20508092    -0.78400
O822        O  0.35319317  0.36618982  0.23499893    -0.78600
C823        C  0.33079787  0.36230256  0.22767765     1.02000
O824        O  0.36516419  0.31929971  0.22477593    -0.85900
O825        O  0.37787863  0.30791606  0.17681183    -0.83000
C826        C  0.38360850  0.30974219  0.15405214     0.97600
O827        O  0.38057252  0.33051848  0.14245744    -0.83000
O828        O  0.41741184  0.36115620  0.16312200    -0.85600
C829        C  0.42935635  0.37137806  0.18098893     1.02100
O830        O  0.41790423  0.37957686  0.20012925    -0.78400
O831        O  0.40052655  0.33963502  0.22826143    -0.78600
C832        C  0.38702080  0.32105004  0.23374924     1.02000
Cr833      Cr  0.35256557  0.33015498  0.19149644     1.93700
Cr834      Cr  0.38064671  0.36611726  0.15736679     1.93200
Cr835      Cr  0.38467453  0.37106621  0.21505490     1.39100
O836        O  0.37298343  0.35590817  0.18800267    -1.23600
O837        O  0.36784894  0.18847458  0.32579253    -0.85900
O838        O  0.35200464  0.14007244  0.33399107    -0.82900
C839        C  0.37287962  0.12972867  0.32958344     0.97600
O840        O  0.39018900  0.13063959  0.34591629    -0.83000
O841        O  0.41901831  0.14947303  0.38595527    -0.85600
C842        C  0.43092033  0.16872240  0.37849919     1.02100
O843        O  0.41915018  0.18785593  0.37095608    -0.78400
O844        O  0.38172856  0.21746179  0.35164998    -0.78600
C845        C  0.37790302  0.20959630  0.32945781     1.02000
O846        O  0.33395973  0.20613508  0.36309206    -0.85900
O847        O  0.32353716  0.15764412  0.37569383    -0.83000
C848        C  0.32551634  0.13458288  0.38048606     0.97600
O849        O  0.34705969  0.12389524  0.37977360    -0.83000
O850        O  0.37522706  0.14705793  0.41818300    -0.85600
C851        C  0.38417376  0.16582340  0.42986176     1.02100
O852        O  0.39358949  0.18398230  0.41781905    -0.78400
O853        O  0.35420720  0.21105147  0.39835822    -0.78600
C854        C  0.33553442  0.21584871  0.38461282     1.02000
Cr855      Cr  0.34630520  0.17285815  0.35128417     1.93700
Cr856      Cr  0.38215651  0.13987222  0.38176812     1.93200
Cr857      Cr  0.38605022  0.19790626  0.38383158     1.39100
O858        O  0.37166514  0.17021700  0.37248032    -1.23600
O859        O  0.14414315  0.15611563  0.28286995    -0.85900
O860        O  0.13927170  0.16889435  0.33205719    -0.82900
C861        C  0.13506999  0.16753557  0.35523613     0.97600
O862        O  0.13606352  0.14648767  0.36640914    -0.83000
O863        O  0.09456114  0.12083160  0.34880914    -0.85600
C864        C  0.07992483  0.11276100  0.33195625     1.02100
O865        O  0.08849692  0.10135703  0.31296555    -0.78400
O866        O  0.10698893  0.13889698  0.28327267    -0.78600
C867        C  0.12114099  0.15678075  0.27714624     1.02000
O868        O  0.18122587  0.11939890  0.29592811    -0.85900
O869        O  0.18089664  0.13719898  0.34471098    -0.83000
C870        C  0.18391686  0.11754577  0.35756102     0.97600
O871        O  0.16662172  0.10144943  0.35868587    -0.83000
O872        O  0.12426245  0.07518536  0.34435865    -0.85600
C873        C  0.13003811  0.06179101  0.32550978     1.02100
O874        O  0.13307274  0.07172958  0.30422208    -0.78400
O875        O  0.15027936  0.10767145  0.27124685    -0.78600
C876        C  0.17365057  0.10983222  0.27558445     1.02000
Cr877      Cr  0.15968051  0.14347321  0.31441083     1.93700
Cr878      Cr  0.13079352  0.11153796  0.35208334     1.93200
Cr879      Cr  0.12098175  0.10592974  0.29493615     1.39100
O880        O  0.13712950  0.12006914  0.32052696    -1.23600
O881        O  0.30780988  0.12018509  0.18628467    -0.85900
O882        O  0.35484551  0.14201792  0.18118868    -0.82900
C883        C  0.36605631  0.12151844  0.18474823     0.97600
O884        O  0.36656575  0.10543841  0.16735426    -0.83000
O885        O  0.35085230  0.07800913  0.12548827    -0.85600
C886        C  0.33117263  0.06497273  0.12919988     1.02100
O887        O  0.31062468  0.07528626  0.13480085    -0.78400
O888        O  0.27982064  0.10903205  0.15788441    -0.78600
C889        C  0.28695807  0.11035151  0.18072557     1.02000
O890        O  0.28772403  0.15662328  0.15292970    -0.85900
O891        O  0.33483460  0.17177165  0.14204241    -0.83000
C892        C  0.35710344  0.17170163  0.13421313     0.97600
O893        O  0.37050851  0.15165488  0.13519981    -0.83000
O894        O  0.35286661  0.12368764  0.09590148    -0.85600
C895        C  0.33532846  0.11583985  0.08198343     1.02100
O896        O  0.31570240  0.10635750  0.09147093    -0.78400
O897        O  0.28709791  0.14235890  0.11467699    -0.78600
C898        C  0.28044737  0.15845760  0.13056968     1.02000
Cr899      Cr  0.32178896  0.14582263  0.16391827     1.93700
Cr900      Cr  0.35808478  0.11517691  0.13182960     1.93200
Cr901      Cr  0.30030400  0.10933521  0.12577191     1.39100
O902        O  0.32682435  0.12312889  0.14023146    -1.23600
O903        O  0.17597485  0.27357769  0.13953574    -0.85900
O904        O  0.17732818  0.32206542  0.15718745    -0.82900
C905        C  0.18293309  0.33154430  0.13629788     0.97600
O906        O  0.16613871  0.33439735  0.11979222    -0.83000
O907        O  0.12395946  0.32438195  0.09111803    -0.85600
C908        C  0.13014587  0.30483757  0.07880388     1.02100
O909        O  0.13274763  0.28414456  0.08990265    -0.78400
O910        O  0.14497070  0.25016036  0.12582502    -0.78600
C911        C  0.16829704  0.25381407  0.12901316     1.02000
O912        O  0.13626196  0.26206321  0.17357090    -0.85900
O913        O  0.13310785  0.31150171  0.18591109    -0.83000
C914        C  0.13125209  0.33501048  0.18451357     0.97600
O915        O  0.13442303  0.34608161  0.16358442    -0.83000
O916        O  0.09311338  0.33131575  0.13556472    -0.85600
C917        C  0.07814500  0.31600158  0.12537100     1.02100
O918        O  0.08635653  0.29620445  0.11487476    -0.78400
O919        O  0.10043142  0.26399356  0.15329235    -0.78600
C920        C  0.11343538  0.25593303  0.17142294     1.02000
Cr921      Cr  0.15414142  0.29286122  0.16223595     1.93700
Cr922      Cr  0.12966897  0.33188142  0.12818834     1.93200
Cr923      Cr  0.11719653  0.27559214  0.12208823     1.39100
O924        O  0.13335835  0.30012852  0.13753253    -1.23600
O925        O  0.32228078  0.78428600  0.36972187    -0.85900
O926        O  0.33106167  0.83230254  0.35279620    -0.82900
C927        C  0.32709973  0.84395061  0.37299993     0.97600
O928        O  0.34297204  0.84267541  0.39060507    -0.83000
O929        O  0.38199347  0.82366380  0.41997846    -0.85600
C930        C  0.37288549  0.80523751  0.43194703     1.02100
O931        O  0.36677106  0.78543868  0.42052339    -0.78400
O932        O  0.34821240  0.75521110  0.38362845    -0.78600
C933        C  0.32600656  0.76304915  0.37957361     1.02000
O934        O  0.35946049  0.76551262  0.33629819    -0.85900
O935        O  0.37289220  0.81354475  0.32518790    -0.83000
C936        C  0.37822532  0.83649147  0.32677550     0.97600
O937        O  0.37730858  0.84768929  0.34791724    -0.83000
O938        O  0.41472602  0.82494622  0.37677187    -0.85600
C939        C  0.42625257  0.80622836  0.38590206     1.02100
O940        O  0.41429161  0.78821402  0.39562094    -0.78400
O941        O  0.39483574  0.76013824  0.35651737    -0.78600
C942        C  0.38075049  0.75514478  0.33810015     1.02000
Cr943      Cr  0.34803257  0.79918428  0.34795252     1.93700
Cr944      Cr  0.37859728  0.83251141  0.38313483     1.93200
Cr945      Cr  0.38030321  0.77445043  0.38802458     1.39100
O946        O  0.36920254  0.80203748  0.37316126    -1.23600
O947        O  0.17520016  0.83630074  0.28931523    -0.85900
O948        O  0.18698467  0.85357671  0.33615626    -0.82900
C949        C  0.18536531  0.86182938  0.35824468     0.97600
O950        O  0.16406388  0.86312146  0.36915474    -0.83000
O951        O  0.13728297  0.90021458  0.34327182    -0.85600
C952        C  0.12980880  0.91082188  0.32329300     1.02100
O953        O  0.12050917  0.89797773  0.30562031    -0.78400
O954        O  0.15906787  0.87319015  0.28202330    -0.78600
C955        C  0.17646375  0.85738521  0.27880585     1.02000
O956        O  0.13917457  0.80359350  0.31028522    -0.85900
O957        O  0.15686287  0.81602960  0.35777486    -0.83000
C958        C  0.13603897  0.81351027  0.36848130     0.97600
O959        O  0.11935529  0.83035744  0.36593202    -0.83000
O960        O  0.09223725  0.86956683  0.34324783    -0.85600
C961        C  0.08010213  0.86156418  0.32427998     1.02100
O962        O  0.09160795  0.85304993  0.30544155    -0.78400
O963        O  0.12790967  0.82833508  0.27919573    -0.78600
C964        C  0.12994477  0.80649912  0.28861563     1.02000
Cr965      Cr  0.16263994  0.82914281  0.32350763     1.93700
Cr966      Cr  0.12889032  0.86486658  0.35334919     1.93200
Cr967      Cr  0.12576348  0.86239339  0.29529677     1.39100
O968        O  0.13881510  0.85232611  0.32409082    -1.23600
O969        O  0.29767129  0.81177968  0.13274393    -0.85900
O970        O  0.34589611  0.81229297  0.15219547    -0.82900
C971        C  0.35847045  0.81041513  0.13227526     0.97600
O972        O  0.36063224  0.82896572  0.11780990    -0.83000
O973        O  0.34744365  0.87259529  0.09333107    -0.85600
C974        C  0.32960090  0.86590807  0.07901902     1.02100
O975        O  0.30824615  0.86117812  0.08797850    -0.78400
O976        O  0.27318511  0.84266657  0.12030193    -0.78600
C977        C  0.27779394  0.81928623  0.12199989     1.02000
O978        O  0.28252517  0.84728795  0.16973109    -0.85900
O979        O  0.33131119  0.85199910  0.18555421    -0.83000
C980        C  0.35471905  0.85547866  0.18525119     0.97600
O981        O  0.36645003  0.85631537  0.16457795    -0.83000
O982        O  0.34898411  0.89929561  0.14050293    -0.85600
C983        C  0.33334702  0.91418207  0.13046657     1.02100
O984        O  0.31453762  0.90561620  0.11853010    -0.78400
O985        O  0.28203319  0.88497540  0.15338220    -0.78600
C986        C  0.27491344  0.86977271  0.16999711     1.02000
Cr987      Cr  0.31491249  0.83271958  0.15833850     1.93700
Cr988      Cr  0.35343822  0.86382894  0.12960839     1.93200
Cr989      Cr  0.29650705  0.87248359  0.12119247     1.39100
O990        O  0.32161462  0.85649263  0.13636437    -1.23600
O991        O  0.13599842  0.69244461  0.17902598    -0.85900
O992        O  0.14861153  0.64235213  0.17277916    -0.82900
C993        C  0.12621505  0.63618286  0.17688217     0.97600
O994        O  0.11057976  0.63688058  0.15901684    -0.83000
O995        O  0.08572155  0.65535251  0.11753093    -0.85600
C996        C  0.07477756  0.67487451  0.12587272     1.02100
O997        O  0.08745935  0.69415433  0.13135611    -0.78400
O998        O  0.12630604  0.72124942  0.15113322    -0.78600
C999        C  0.12753130  0.71399969  0.17375829     1.02000
O1000       O  0.17322807  0.70586327  0.14352572    -0.85900
O1001       O  0.18069161  0.65652725  0.13238743    -0.83000
C1002       C  0.17705876  0.63373799  0.12745098     0.97600
O1003       O  0.15488533  0.62477849  0.12752463    -0.83000
O1004       O  0.13022645  0.64830328  0.08717169    -0.85600
C1005       C  0.12230155  0.66701145  0.07465636     1.02100
O1006       O  0.11486106  0.68675051  0.08575224    -0.78400
O1007       O  0.15611592  0.71121309  0.10663089    -0.78600
C1008       C  0.17443058  0.71428225  0.12151597     1.02000
Cr1009     Cr  0.15781504  0.67415118  0.15522456     1.93700
Cr1010     Cr  0.12137125  0.64327791  0.12343280     1.93200
Cr1011     Cr  0.12207325  0.70122937  0.11953270     1.39100
O1012       O  0.13371113  0.67292609  0.13238840    -1.23600
O1013       O  0.36495987  0.66746273  0.20104285    -0.85900
O1014       O  0.34563848  0.66280386  0.15316902    -0.82900
C1015       C  0.36558163  0.66693926  0.14123379     0.97600
O1016       O  0.38271972  0.65048860  0.14071079    -0.83000
O1017       O  0.41117287  0.60923644  0.15509548    -0.85600
C1018       C  0.42476529  0.61558376  0.17358449     1.02100
O1019       O  0.41502704  0.62049678  0.19456936    -0.78400
O1020       O  0.37991147  0.63958584  0.22762251    -0.78600
C1021       C  0.37543622  0.66235202  0.22171666     1.02000
O1022       O  0.33107556  0.63043270  0.21801786    -0.85900
O1023       O  0.31729334  0.62073259  0.16968313    -0.83000
C1024       C  0.31800891  0.61621688  0.14651833     0.97600
O1025       O  0.33865111  0.61791821  0.13464551    -0.83000
O1026       O  0.36712172  0.57841345  0.15296112    -0.85600
C1027       C  0.37648268  0.56486775  0.17007204     1.02100
O1028       O  0.38689368  0.57471031  0.18914508    -0.78400
O1029       O  0.35030290  0.59420086  0.21983035    -0.78600
C1030       C  0.33229483  0.60827989  0.22613357     1.02000
Cr1031     Cr  0.34168732  0.64368803  0.18502464     1.93700
Cr1032     Cr  0.37436607  0.61460631  0.14823193     1.93200
Cr1033     Cr  0.38190918  0.60829527  0.20573111     1.39100
O1034       O  0.36620004  0.62200341  0.17968948    -1.23600
O1035       O  0.19874805  0.62420951  0.31757822    -0.85900
O1036       O  0.15148645  0.64322122  0.32677789    -0.82900
C1037       C  0.14093452  0.62248104  0.32239071     0.97600
O1038       O  0.13997799  0.60617816  0.33957258    -0.83000
O1039       O  0.15648253  0.57686321  0.37944117    -0.85600
C1040       C  0.17298331  0.56258566  0.36974056     1.02100
O1041       O  0.19288510  0.57185485  0.36104567    -0.78400
O1042       O  0.22649112  0.60645185  0.34249502    -0.78600
C1043       C  0.21914318  0.61238304  0.32062718     1.02000
O1044       O  0.21920879  0.65577406  0.35562332    -0.85900
O1045       O  0.17206205  0.67080174  0.36858305    -0.83000
C1046       C  0.14921953  0.67062533  0.37458077     0.97600
O1047       O  0.13688038  0.65021039  0.37330910    -0.83000
O1048       O  0.15922374  0.62046849  0.41097564    -0.85600
C1049       C  0.17664383  0.60826091  0.42193417     1.02100
O1050       O  0.19326432  0.59680148  0.40914961    -0.78400
O1051       O  0.22414805  0.63298210  0.38951212    -0.78600
C1052       C  0.22973070  0.65185136  0.37649427     1.02000
Cr1053     Cr  0.18502960  0.64659841  0.34374332     1.93700
Cr1054     Cr  0.15016611  0.61406856  0.37502132     1.93200
Cr1055     Cr  0.20713807  0.60334507  0.37477692     1.39100
O1056       O  0.18091777  0.62138721  0.36478180    -1.23600
C1057       C  0.23552888  0.60756972  0.29868110    -0.05800
C1058       C  0.22891574  0.61768681  0.27520406    -0.05700
C1059       C  0.24593326  0.61729096  0.25539383    -0.23900
C1060       C  0.26988632  0.60673841  0.25864301     0.18300
C1061       C  0.27627701  0.59494336  0.28152684     0.15600
C1062       C  0.25897361  0.59534260  0.30143189    -0.18900
C1063       C  0.30034942  0.58422435  0.28444442    -0.20700
C1064       C  0.31842747  0.58676294  0.26553007    -0.13300
C1065       C  0.31259057  0.60011034  0.24359500     0.03400
C1066       C  0.28800547  0.60911948  0.23987191    -0.25400
H1067       H  0.21096253  0.62699860  0.27242816     0.08500
H1068       H  0.24071135  0.62616692  0.23783580     0.12100
H1069       H  0.26426192  0.58728878  0.31936141     0.12000
H1070       H  0.30553620  0.57488909  0.30176261     0.11800
H1071       H  0.33732113  0.57973098  0.26868849     0.12300
H1072       H  0.28337254  0.61922478  0.22279301     0.14200
C1073       C  0.19951037  0.61760415  0.12616461    -0.05800
C1074       C  0.20435242  0.60161907  0.14650470    -0.05700
C1075       C  0.22901799  0.59464345  0.15247191    -0.23900
C1076       C  0.24910870  0.60344363  0.13801886     0.18300
C1077       C  0.24417611  0.61716213  0.11585311     0.15600
C1078       C  0.21930186  0.62419343  0.11006035    -0.18900
C1079       C  0.26438206  0.62573126  0.10133696    -0.20700
C1080       C  0.28912999  0.62304696  0.11007059    -0.13300
C1081       C  0.29389192  0.61187023  0.13344814     0.03400
C1082       C  0.27393378  0.60084116  0.14661524    -0.25400
H1083       H  0.18941231  0.59683405  0.15938536     0.08500
H1084       H  0.23249664  0.58396739  0.16943422     0.12100
H1085       H  0.21564561  0.63689848  0.09457378     0.12000
H1086       H  0.26096632  0.63598183  0.08410800     0.11800
H1087       H  0.30425288  0.63163761  0.09963599     0.12300
H1088       H  0.27753641  0.59201195  0.16460593     0.14200
C1089       C  0.11855514  0.63196299  0.20318022    -0.05800
C1090       C  0.10628940  0.65171186  0.21574187    -0.05700
C1091       C  0.10590613  0.65268373  0.24196181    -0.23900
C1092       C  0.11729667  0.63357724  0.25616457     0.18300
C1093       C  0.12763029  0.61239389  0.24376665     0.15600
C1094       C  0.12863937  0.61193808  0.21729020    -0.18900
C1095       C  0.13820080  0.59289377  0.25813524    -0.20700
C1096       C  0.14015236  0.59516688  0.28429056    -0.13300
C1097       C  0.13205371  0.61717619  0.29650732     0.03400
C1098       C  0.11993709  0.63601257  0.28236885    -0.25400
H1099       H  0.09876098  0.66748142  0.20526422     0.08500
H1100       H  0.09769502  0.66897179  0.25110696     0.12100
H1101       H  0.13847342  0.59680806  0.20774708     0.12000
H1102       H  0.14596093  0.57635480  0.24905870     0.11800
H1103       H  0.14979080  0.58056055  0.29474663     0.12300
H1104       H  0.11370078  0.65310684  0.29162322     0.14200
C1105       C  0.25871583  0.80080433  0.11321704    -0.05800
C1106       C  0.23685612  0.80900102  0.10060653    -0.05700
C1107       C  0.21685199  0.79252964  0.09613063    -0.23900
C1108       C  0.21811666  0.76758541  0.10448611     0.18300
C1109       C  0.24069271  0.75871601  0.11562259     0.15600
C1110       C  0.26092195  0.77522667  0.11955554    -0.18900
C1111       C  0.24203847  0.73394076  0.12429367    -0.20700
C1112       C  0.22064658  0.71887260  0.12406161    -0.13300
C1113       C  0.19757126  0.72801876  0.11472216     0.03400
C1114       C  0.19671127  0.75196901  0.10368109    -0.25400
H1115       H  0.23476165  0.82847283  0.09509818     0.08500
H1116       H  0.19989019  0.79967190  0.08728101     0.12100
H1117       H  0.27769913  0.76849776  0.12908735     0.12000
H1118       H  0.25921335  0.72669701  0.13265609     0.11800
H1119       H  0.22175557  0.70039462  0.13251409     0.12300
H1120       H  0.17896094  0.75925059  0.09664810     0.14200
C1121       C  0.36757510  0.69117734  0.12811778    -0.05800
C1122       C  0.34720708  0.69899052  0.11318196    -0.05700
C1123       C  0.34396781  0.72425701  0.10700588    -0.23900
C1124       C  0.36071033  0.74226991  0.11629212     0.18300
C1125       C  0.38226105  0.73448262  0.12995525     0.15600
C1126       C  0.38585677  0.70877916  0.13536256    -0.18900
C1127       C  0.39837589  0.75274865  0.14008442    -0.20700
C1128       C  0.39191513  0.77827600  0.13870342    -0.13300
C1129       C  0.36976734  0.78588271  0.12645997     0.03400
C1130       C  0.35487264  0.76793886  0.11427959    -0.25400
H1131       H  0.33281516  0.68568851  0.10771260     0.08500
H1132       H  0.32737267  0.72989266  0.09654389     0.12100
H1133       H  0.40125149  0.70291804  0.14742316     0.12000
H1134       H  0.41494168  0.74722465  0.15063914     0.11800
H1135       H  0.40327582  0.79192116  0.14864489     0.12300
H1136       H  0.33738974  0.77378473  0.10544622     0.14200
C1137       C  0.12411442  0.78448420  0.27273417    -0.05800
C1138       C  0.13155104  0.76013002  0.27990967    -0.05700
C1139       C  0.13107052  0.74039492  0.26252721    -0.23900
C1140       C  0.12345030  0.74484499  0.23770132     0.18300
C1141       C  0.11427282  0.76887788  0.23093411     0.15600
C1142       C  0.11420176  0.78832530  0.24858533    -0.18900
C1143       C  0.10689059  0.77360283  0.20617262    -0.20700
C1144       C  0.11020116  0.75524446  0.18782367    -0.13300
C1145       C  0.12066566  0.73172495  0.19397038     0.03400
C1146       C  0.12625356  0.72624578  0.21919722    -0.25400
H1147       H  0.13902760  0.75662568  0.29849872     0.08500
H1148       H  0.13790225  0.72201153  0.26813997     0.12100
H1149       H  0.10807240  0.80694014  0.24289011     0.12000
H1150       H  0.09962918  0.79188696  0.20075753     0.11800
H1151       H  0.10535823  0.75980878  0.16861866     0.12300
H1152       H  0.13413555  0.70809073  0.22420745     0.14200
C1153       C  0.13264291  0.79012142  0.38297877    -0.05800
C1154       C  0.15226067  0.78296552  0.39926413    -0.05700
C1155       C  0.15708119  0.75763867  0.40430850    -0.23900
C1156       C  0.14246233  0.73893657  0.39296056     0.18300
C1157       C  0.12096186  0.74590356  0.37884082     0.15600
C1158       C  0.11597457  0.77159511  0.37416712    -0.18900
C1159       C  0.10638256  0.72700065  0.36758392    -0.20700
C1160       C  0.11428206  0.70179187  0.36835364    -0.13300
C1161       C  0.13694691  0.69509856  0.38025928     0.03400
C1162       C  0.15031576  0.71364339  0.39353517    -0.25400
H1163       H  0.16549208  0.79687690  0.40600400     0.08500
H1164       H  0.17346473  0.75266592  0.41542780     0.12100
H1165       H  0.10113171  0.77685256  0.36117174     0.12000
H1166       H  0.08972235  0.73187645  0.35685114     0.11800
H1167       H  0.10376794  0.68787203  0.35789287     0.12300
H1168       H  0.16784673  0.70864800  0.40277690     0.14200
C1169       C  0.25701558  0.87685270  0.18985354    -0.05800
C1170       C  0.23593575  0.89217295  0.18519969    -0.05700
C1171       C  0.21640176  0.89359015  0.20285078    -0.23900
C1172       C  0.21772134  0.87954095  0.22515476     0.18300
C1173       C  0.23970828  0.86536349  0.23033169     0.15600
C1174       C  0.25921571  0.86452553  0.21295297    -0.18900
C1175       C  0.24135191  0.85091543  0.25210662    -0.20700
C1176       C  0.22087865  0.84930817  0.26807391    -0.13300
C1177       C  0.19844599  0.86240425  0.26283617     0.03400
C1178       C  0.19717825  0.87826056  0.24176072    -0.25400
H1179       H  0.23389603  0.90175057  0.16741110     0.08500
H1180       H  0.19979511  0.90468306  0.19853388     0.12100
H1181       H  0.27560471  0.85285362  0.21674110     0.12000
H1182       H  0.25815788  0.84005592  0.25631688     0.11800
H1183       H  0.22241908  0.83729210  0.28438997     0.12300
H1184       H  0.17990739  0.88836889  0.23759231     0.14200
C1185       C  0.38166895  0.85013708  0.30295718    -0.05800
C1186       C  0.36856557  0.87271996  0.29871474    -0.05700
C1187       C  0.36324882  0.88055675  0.27415874    -0.23900
C1188       C  0.37101000  0.86589403  0.25361407     0.18300
C1189       C  0.38667779  0.84474973  0.25781001     0.15600
C1190       C  0.39207233  0.83717352  0.28242877    -0.18900
C1191       C  0.39479248  0.83018166  0.23741903    -0.20700
C1192       C  0.38591764  0.83530879  0.21328095    -0.13300
C1193       C  0.36860973  0.85486943  0.20920381     0.03400
C1194       C  0.36182627  0.87069667  0.22926564    -0.25400
H1195       H  0.36027157  0.88291334  0.31425181     0.08500
H1196       H  0.35157598  0.89706688  0.27130871     0.12100
H1197       H  0.40227052  0.81974258  0.28559993     0.12000
H1198       H  0.40690566  0.81399011  0.24031767     0.11800
H1199       H  0.39112580  0.82282298  0.19805950     0.12300
H1200       H  0.34838470  0.88577682  0.22615300     0.14200
C1201       C  0.38774359  0.73672289  0.31850349    -0.05800
C1202       C  0.39935546  0.71367134  0.32427993    -0.05700
C1203       C  0.40106093  0.69463871  0.30600419    -0.23900
C1204       C  0.39132734  0.69851659  0.28171286     0.18300
C1205       C  0.38101308  0.72226643  0.27559593     0.15600
C1206       C  0.37931885  0.74105110  0.29391462    -0.18900
C1207       C  0.37153502  0.72665217  0.25151315    -0.20700
C1208       C  0.37115304  0.70740595  0.23381797    -0.13300
C1209       C  0.38003034  0.68317430  0.23979376     0.03400
C1210       C  0.39074736  0.67899235  0.26371885    -0.25400
H1211       H  0.40581623  0.70991090  0.34318827     0.08500
H1212       H  0.40921744  0.67664660  0.31109694     0.12100
H1213       H  0.37046229  0.75888070  0.28928029     0.12000
H1214       H  0.36372914  0.74484258  0.24653854     0.11800
H1215       H  0.36290308  0.71135440  0.21564370     0.12300
H1216       H  0.39773813  0.66046337  0.26862213     0.14200
C1217       C  0.30384088  0.85907860  0.37453818    -0.05800
C1218       C  0.29810744  0.87488670  0.35423978    -0.05700
C1219       C  0.27346854  0.88275439  0.34976247    -0.23900
C1220       C  0.25399799  0.87450187  0.36524475     0.18300
C1221       C  0.25968937  0.86034142  0.38699370     0.15600
C1222       C  0.28481644  0.85298099  0.39175486    -0.18900
C1223       C  0.23985405  0.85177036  0.40206120    -0.20700
C1224       C  0.21478009  0.85495233  0.39425914    -0.13300
C1225       C  0.20927754  0.86692425  0.37142236     0.03400
C1226       C  0.22889689  0.87795849  0.35784932    -0.25400
H1227       H  0.31248280  0.87955994  0.34069153     0.08500
H1228       H  0.26941241  0.89369721  0.33308926     0.12100
H1229       H  0.28904364  0.84033736  0.40714725     0.12000
H1230       H  0.24375437  0.84100430  0.41887568     0.11800
H1231       H  0.19994577  0.84602967  0.40482233     0.12300
H1232       H  0.22473803  0.88705930  0.34010123     0.14200
C1233       C  0.30452070  0.74628231  0.38412981    -0.05800
C1234       C  0.27987016  0.75486802  0.37971813    -0.05700
C1235       C  0.25981232  0.73813387  0.37987368    -0.23900
C1236       C  0.26411032  0.71254986  0.38432540     0.18300
C1237       C  0.28859258  0.70388607  0.39024967     0.15600
C1238       C  0.30863720  0.72088232  0.39032239    -0.18900
C1239       C  0.29273853  0.67817955  0.39469422    -0.20700
C1240       C  0.27302682  0.66106414  0.39195947    -0.13300
C1241       C  0.24910239  0.66954284  0.38465179     0.03400
C1242       C  0.24456685  0.69531806  0.38160890    -0.25400
H1243       H  0.27618739  0.77437295  0.37516846     0.08500
H1244       H  0.24107992  0.74504365  0.37554441     0.12100
H1245       H  0.32756834  0.71403942  0.39384258     0.12000
H1246       H  0.31138153  0.67122245  0.39930556     0.11800
H1247       H  0.27676842  0.64115735  0.39411044     0.12300
H1248       H  0.22600252  0.70180516  0.37597391     0.14200
C1249       C  0.33060287  0.03734312  0.12539720    -0.05800
C1250       C  0.30953891  0.02712931  0.11306225    -0.05700
C1251       C  0.30627199  0.00121498  0.11117501    -0.23900
C1252       C  0.32385561  0.98476849  0.12189330     0.18300
C1253       C  0.34538285  0.99462452  0.13405110     0.15600
C1254       C  0.34885069  0.02095281  0.13545472    -0.18900
C1255       C  0.36267833  0.97791337  0.14503999    -0.20700
C1256       C  0.35868613  0.95187789  0.14404876    -0.13300
C1257       C  0.33736679  0.94189368  0.13193148     0.03400
C1258       C  0.32003678  0.95864030  0.12086223    -0.25400
H1259       H  0.29527322  0.03936854  0.10507975     0.08500
H1260       H  0.28969848  0.99405408  0.10172795     0.12100
H1261       H  0.36500444  0.02861820  0.14522046     0.12000
H1262       H  0.37925150  0.98497549  0.15454068     0.11800
H1263       H  0.37239461  0.93952593  0.15274475     0.12300
H1264       H  0.30346158  0.95138042  0.11148209     0.14200
C1265       C  0.18656742  0.23410076  0.12227088    -0.05800
C1266       C  0.17843094  0.20973502  0.11623037    -0.05700
C1267       C  0.19579922  0.19015414  0.11364933    -0.23900
C1268       C  0.22148706  0.19466756  0.11728451     0.18300
C1269       C  0.22987447  0.21941960  0.12212984     0.15600
C1270       C  0.21240983  0.23899806  0.12416040    -0.18900
C1271       C  0.25543212  0.22394594  0.12652818    -0.20700
C1272       C  0.27227808  0.20387899  0.12783119    -0.13300
C1273       C  0.26389789  0.17925789  0.12390363     0.03400
C1274       C  0.23874038  0.17469773  0.11774462    -0.25400
H1275       H  0.15857868  0.20556981  0.11456458     0.08500
H1276       H  0.18906194  0.17132984  0.10989584     0.12100
H1277       H  0.21889455  0.25778738  0.12859188     0.12000
H1278       H  0.26213722  0.24278885  0.13027004     0.11800
H1279       H  0.29171111  0.20743522  0.13283610     0.12300
H1280       H  0.23233433  0.15553387  0.11524500     0.14200
C1281       C  0.13138743  0.93860672  0.31981708    -0.05800
C1282       C  0.12748445  0.94884403  0.29572438    -0.05700
C1283       C  0.12762721  0.97479984  0.29180033    -0.23900
C1284       C  0.13142525  0.99131334  0.31190824     0.18300
C1285       C  0.13585584  0.98140797  0.33615340     0.15600
C1286       C  0.13610883  0.95512893  0.33993037    -0.18900
C1287       C  0.13931539  0.99801729  0.35629934    -0.20700
C1288       C  0.13760099  0.02402506  0.35265778    -0.13300
C1289       C  0.13281952  0.03411384  0.32872000     0.03400
C1290       C  0.13026711  0.01753898  0.30827325    -0.25400
H1291       H  0.12412147  0.93672055  0.27973761     0.08500
H1292       H  0.12430150  0.98195929  0.27305832     0.12100
H1293       H  0.13922859  0.94762448  0.35857294     0.12000
H1294       H  0.14286581  0.99089018  0.37500753     0.11800
H1295       H  0.13998393  0.03632035  0.36868943     0.12300
H1296       H  0.12658267  0.02499430  0.28970284     0.14200
C1297       C  0.19195268  0.10323325  0.25574387    -0.05800
C1298       C  0.18363822  0.09966961  0.23092027    -0.05700
C1299       C  0.20086569  0.09744831  0.21132997    -0.23900
C1300       C  0.22672960  0.09876882  0.21619542     0.18300
C1301       C  0.23534413  0.10075456  0.24124216     0.15600
C1302       C  0.21791280  0.10282218  0.26087183    -0.18900
C1303       C  0.26121923  0.10209461  0.24608850    -0.20700
C1304       C  0.27825210  0.10346561  0.22626457    -0.13300
C1305       C  0.26972705  0.10326873  0.20124374     0.03400
C1306       C  0.24399645  0.09969595  0.19637078    -0.25400
H1307       H  0.16375708  0.09978590  0.22643942     0.08500
H1308       H  0.19392275  0.09575548  0.19227040     0.12100
H1309       H  0.22456845  0.10530546  0.27995855     0.12000
H1310       H  0.26820371  0.10330726  0.26517004     0.11800
H1311       H  0.29802233  0.10587588  0.23055676     0.12300
H1312       H  0.23717017  0.09943746  0.17718719     0.14200
C1313       C  0.11189298  0.17891544  0.26324595    -0.05800
C1314       C  0.11907194  0.20276951  0.27192141    -0.05700
C1315       C  0.11666507  0.22382308  0.25661031    -0.23900
C1316       C  0.10759567  0.22125727  0.23208123     0.18300
C1317       C  0.09846018  0.19773419  0.22371056     0.15600
C1318       C  0.10028462  0.17662908  0.23961823    -0.18900
C1319       C  0.08973949  0.19540546  0.19889390    -0.20700
C1320       C  0.09224664  0.21544008  0.18201112    -0.13300
C1321       C  0.10332568  0.23803920  0.18983609     0.03400
C1322       C  0.10970351  0.24124104  0.21517685    -0.25400
H1323       H  0.12789094  0.20485822  0.29015683     0.08500
H1324       H  0.12348055  0.24177450  0.26337703     0.12100
H1325       H  0.09491390  0.15820957  0.23279333     0.12000
H1326       H  0.08251358  0.17762881  0.19212173     0.11800
H1327       H  0.08740258  0.21260251  0.16247045     0.12300
H1328       H  0.11827797  0.25870379  0.22124468     0.14200
C1329       C  0.30174628  0.12041773  0.38336226    -0.05800
C1330       C  0.29738335  0.09864830  0.36904158    -0.05700
C1331       C  0.27267757  0.09060880  0.36419914    -0.23900
C1332       C  0.25200419  0.10431607  0.37350600     0.18300
C1333       C  0.25646828  0.12471775  0.38996013     0.15600
C1334       C  0.28121456  0.13240013  0.39495497    -0.18900
C1335       C  0.23614401  0.13873833  0.39920340    -0.20700
C1336       C  0.21185727  0.13428535  0.39035574    -0.13300
C1337       C  0.20729279  0.11546658  0.37247313     0.03400
C1338       C  0.22723811  0.09963200  0.36495539    -0.25400
H1339       H  0.31286113  0.08926529  0.35968548     0.08500
H1340       H  0.26974066  0.07477090  0.35173649     0.12100
H1341       H  0.28440211  0.14928421  0.40594095     0.12000
H1342       H  0.23923903  0.15435092  0.41191763     0.11800
H1343       H  0.19679942  0.14681074  0.39610681     0.12300
H1344       H  0.22392413  0.08540042  0.35075547     0.14200
C1345       C  0.37735253  0.11711069  0.20970866    -0.05800
C1346       C  0.39766721  0.13192930  0.21761877    -0.05700
C1347       C  0.40383828  0.13392961  0.24312617    -0.23900
C1348       C  0.38920544  0.12181396  0.26129437     0.18300
C1349       C  0.36931628  0.10603615  0.25340416     0.15600
C1350       C  0.36379072  0.10346710  0.22764808    -0.18900
C1351       C  0.35391544  0.09482551  0.27145480    -0.20700
C1352       C  0.35693880  0.10067815  0.29686913    -0.13300
C1353       C  0.37580943  0.11728687  0.30489497     0.03400
C1354       C  0.39264162  0.12696868  0.28708772    -0.25400
H1355       H  0.40787064  0.14311966  0.20413432     0.08500
H1356       H  0.41903379  0.14623107  0.24872250     0.12100
H1357       H  0.34751317  0.09274829  0.22174225     0.12000
H1358       H  0.33848904  0.08282908  0.26580665     0.11800
H1359       H  0.34344580  0.09346959  0.31020033     0.12300
H1360       H  0.40667914  0.14046757  0.29299291     0.14200
C1361       C  0.37486342  0.44301795  0.18563942    -0.05800
C1362       C  0.37638318  0.45548203  0.20890053    -0.05700
C1363       C  0.37715645  0.48160967  0.21022870    -0.23900
C1364       C  0.37603133  0.49600697  0.18835124     0.18300
C1365       C  0.37378723  0.48394169  0.16478765     0.15600
C1366       C  0.37352773  0.45742684  0.16352186    -0.18900
C1367       C  0.37191013  0.49870438  0.14304390    -0.20700
C1368       C  0.37248373  0.52502797  0.14466920    -0.13300
C1369       C  0.37542480  0.53706008  0.16802034     0.03400
C1370       C  0.37712560  0.52230502  0.18976704    -0.25400
H1371       H  0.37759302  0.44495596  0.22622575     0.08500
H1372       H  0.37873940  0.49056649  0.22844400     0.12100
H1373       H  0.37220009  0.44807603  0.14548346     0.12000
H1374       H  0.36998541  0.48990835  0.12479191     0.11800
H1375       H  0.37102015  0.53597493  0.12762823     0.12300
H1376       H  0.37899173  0.53132961  0.20793604     0.14200
C1377       C  0.39082992  0.28618446  0.14137649    -0.05800
C1378       C  0.40988574  0.27132832  0.15223773    -0.05700
C1379       C  0.41028640  0.24525568  0.14876547    -0.23900
C1380       C  0.39113738  0.23352699  0.13499497     0.18300
C1381       C  0.37319371  0.24861278  0.12218890     0.15600
C1382       C  0.37355568  0.27492128  0.12496932    -0.18900
C1383       C  0.35351321  0.23705262  0.10914426    -0.20700
C1384       C  0.35015686  0.21113195  0.11086639    -0.13300
C1385       C  0.36660788  0.19614919  0.12528331     0.03400
C1386       C  0.38798456  0.20721942  0.13608034    -0.25400
H1387       H  0.42311402  0.27965995  0.16528249     0.08500
H1388       H  0.42427058  0.23413438  0.15864796     0.12100
H1389       H  0.35839943  0.28618481  0.11711675     0.12000
H1390       H  0.33959819  0.24822263  0.09920995     0.11800
H1391       H  0.33347813  0.20296465  0.10249961     0.12300
H1392       H  0.40043751  0.19590627  0.14765108     0.14200
C1393       C  0.30152211  0.35940000  0.14373810    -0.05800
C1394       C  0.28760651  0.37792022  0.15646815    -0.05700
C1395       C  0.26124858  0.37751850  0.15612580    -0.23900
C1396       C  0.24838392  0.35879362  0.14271670     0.18300
C1397       C  0.26229357  0.34117554  0.12838451     0.15600
C1398       C  0.28873822  0.34141951  0.12924464    -0.18900
C1399       C  0.24952109  0.32274479  0.11454910    -0.20700
C1400       C  0.22332549  0.32100108  0.11580225    -0.13300
C1401       C  0.20948105  0.33739985  0.13114273     0.03400
C1402       C  0.22202404  0.35654756  0.14431802    -0.25400
H1403       H  0.29710941  0.39155749  0.16820809     0.08500
H1404       H  0.25095529  0.39124880  0.16714447     0.12100
H1405       H  0.29939289  0.32686574  0.11967189     0.12000
H1406       H  0.25985288  0.30914263  0.10340674     0.11800
H1407       H  0.21395203  0.30591248  0.10587182     0.12300
H1408       H  0.21138228  0.36905434  0.15642107     0.14200
C1409       C  0.38334929  0.22589408  0.30766879    -0.05800
C1410       C  0.37410971  0.21918257  0.28384887    -0.05700
C1411       C  0.37593537  0.23569939  0.26373042    -0.23900
C1412       C  0.38706376  0.25925128  0.26700013     0.18300
C1413       C  0.39785070  0.26576585  0.29036089     0.15600
C1414       C  0.39599061  0.24895537  0.31060997    -0.18900
C1415       C  0.40902890  0.28950927  0.29329013    -0.20700
C1416       C  0.40765201  0.30729225  0.27391849    -0.13300
C1417       C  0.39516017  0.30140402  0.25146136     0.03400
C1418       C  0.38608609  0.27695762  0.24771654    -0.25400
H1419       H  0.36449380  0.20151772  0.28094135     0.08500
H1420       H  0.36774865  0.23042442  0.24584038     0.12100
H1421       H  0.40341968  0.25425886  0.32881608     0.12000
H1422       H  0.41764660  0.29476989  0.31097106     0.11800
H1423       H  0.41471673  0.32607807  0.27712841     0.12300
H1424       H  0.37664540  0.27225895  0.23025456     0.14200
C1425       C  0.16972960  0.53480899  0.37018436    -0.05800
C1426       C  0.15117205  0.52392399  0.38539337    -0.05700
C1427       C  0.14938149  0.49778308  0.38772346    -0.23900
C1428       C  0.16606124  0.48188810  0.37483473     0.18300
C1429       C  0.18445041  0.49256078  0.35905735     0.15600
C1430       C  0.18616125  0.51886859  0.35681178    -0.18900
C1431       C  0.20116810  0.47673878  0.34618534    -0.20700
C1432       C  0.20013141  0.45068173  0.34936884    -0.13300
C1433       C  0.18224549  0.43974244  0.36536696     0.03400
C1434       C  0.16496831  0.45556970  0.37779009    -0.25400
H1435       H  0.13837745  0.53565927  0.39605232     0.08500
H1436       H  0.13515940  0.49001011  0.39992775     0.12100
H1437       H  0.20057787  0.52691535  0.34499779     0.12000
H1438       H  0.21531426  0.48453317  0.33390133     0.11800
H1439       H  0.21353460  0.43904610  0.33935455     0.12300
H1440       H  0.15109105  0.44749132  0.39020128     0.14200
C1441       C  0.12614037  0.35675445  0.30289152    -0.05800
C1442       C  0.10790101  0.33888582  0.29636979    -0.05700
C1443       C  0.10234709  0.33386847  0.27126746    -0.23900
C1444       C  0.11534986  0.34629792  0.25219213     0.18300
C1445       C  0.13249960  0.36558027  0.25842163     0.15600
C1446       C  0.13756802  0.37093731  0.28385966    -0.18900
C1447       C  0.14581229  0.37756466  0.23914060    -0.20700
C1448       C  0.14353296  0.36927966  0.21423665    -0.13300
C1449       C  0.12794645  0.34889327  0.20830370     0.03400
C1450       C  0.11308694  0.33824124  0.22722465    -0.25400
H1451       H  0.09938276  0.32737557  0.31073419     0.08500
H1452       H  0.08916421  0.31903286  0.26680381     0.12100
H1453       H  0.15229617  0.38411777  0.28873754     0.12000
H1454       H  0.15905805  0.39236563  0.24349920     0.11800
H1455       H  0.15540866  0.37747667  0.19999902     0.12300
H1456       H  0.10115373  0.32234887  0.22277542     0.14200
C1457       C  0.13158797  0.28529637  0.38138562    -0.05800
C1458       C  0.11377758  0.28054635  0.36249947    -0.05700
C1459       C  0.10800656  0.25585595  0.35564958    -0.23900
C1460       C  0.11974524  0.23560336  0.36785644     0.18300
C1461       C  0.13531067  0.24018819  0.38890441     0.15600
C1462       C  0.14116790  0.26508260  0.39553025    -0.18900
C1463       C  0.14667323  0.21983628  0.40136594    -0.20700
C1464       C  0.14456014  0.19545616  0.39167070    -0.13300
C1465       C  0.13132707  0.19120129  0.36925482     0.03400
C1466       C  0.11797534  0.21114726  0.35808437    -0.25400
H1467       H  0.10659579  0.29580771  0.35106707     0.08500
H1468       H  0.09582685  0.25265776  0.33963100     0.12100
H1469       H  0.15522167  0.26864397  0.40987726     0.12000
H1470       H  0.15840906  0.22295692  0.41772132     0.11800
H1471       H  0.15494842  0.18030909  0.40053783     0.12300
H1472       H  0.10758178  0.20789450  0.34084763     0.14200
C1473       C  0.24125814  0.29200411  0.38260783    -0.05800
C1474       C  0.23472637  0.26914252  0.37104334    -0.05700
C1475       C  0.25086439  0.24858727  0.37187573    -0.23900
C1476       C  0.27392824  0.25047442  0.38428263     0.18300
C1477       C  0.27993586  0.27254041  0.39786820     0.15600
C1478       C  0.26330273  0.29328032  0.39718893    -0.18900
C1479       C  0.30320328  0.27390423  0.41037458    -0.20700
C1480       C  0.32102628  0.25454382  0.40766523    -0.13300
C1481       C  0.31572779  0.23367158  0.39240997     0.03400
C1482       C  0.29170080  0.23123512  0.38184176    -0.25400
H1483       H  0.21753760  0.26753730  0.36018715     0.08500
H1484       H  0.24585510  0.23165683  0.36171159     0.12100
H1485       H  0.26839209  0.31079111  0.40625840     0.12000
H1486       H  0.30809661  0.29044993  0.42117936     0.11800
H1487       H  0.33941914  0.25661035  0.41617562     0.12300
H1488       H  0.28731426  0.21490351  0.37043765     0.14200
C1489       C  0.23241089  0.36115198  0.29823117    -0.05800
C1490       C  0.22634626  0.34960473  0.27526890    -0.05700
C1491       C  0.24352962  0.34978174  0.25548902    -0.23900
C1492       C  0.26699051  0.36135151  0.25853643     0.18300
C1493       C  0.27239518  0.37441501  0.28101891     0.15600
C1494       C  0.25493441  0.37455682  0.30049279    -0.18900
C1495       C  0.29582641  0.38578287  0.28435542    -0.20700
C1496       C  0.31445424  0.38278377  0.26632647    -0.13300
C1497       C  0.30982201  0.36865827  0.24451836     0.03400
C1498       C  0.28567280  0.35886894  0.24020857    -0.25400
H1499       H  0.20896408  0.33930349  0.27305928     0.08500
H1500       H  0.23897351  0.33985650  0.23830231     0.12100
H1501       H  0.25960342  0.38383780  0.31802518     0.12000
H1502       H  0.30013882  0.39602660  0.30142051     0.11800
H1503       H  0.33279908  0.39081609  0.26988017     0.12300
H1504       H  0.28186775  0.34804801  0.22336862     0.14200
C1505       C  0.54706306  0.61471513  0.18514683    -0.05800
C1506       C  0.53570436  0.61388933  0.20891095    -0.05700
C1507       C  0.50960359  0.61472348  0.21130133    -0.23900
C1508       C  0.49427571  0.61601083  0.18993936     0.18300
C1509       C  0.50539200  0.61682072  0.16589761     0.15600
C1510       C  0.53176534  0.61654367  0.16365071    -0.18900
C1511       C  0.48989074  0.61747133  0.14456154    -0.20700
C1512       C  0.46368520  0.61709327  0.14702142    -0.13300
C1513       C  0.45248606  0.61649278  0.17086816     0.03400
C1514       C  0.46800412  0.61613322  0.19226709    -0.25400
H1515       H  0.54707510  0.61272395  0.22576855     0.08500
H1516       H  0.50140433  0.61407830  0.22986771     0.12100
H1517       H  0.54033113  0.61708554  0.14524076     0.12000
H1518       H  0.49802597  0.61799820  0.12596871     0.11800
H1519       H  0.45215897  0.61737626  0.13023960     0.12300
H1520       H  0.45965341  0.61539369  0.21077288     0.14200
C1521       C  0.69848354  0.61120370  0.24055014    -0.05800
C1522       C  0.72256242  0.61869470  0.23286589    -0.05700
C1523       C  0.74221959  0.62012655  0.25012305    -0.23900
C1524       C  0.73804641  0.61422363  0.27532838     0.18300
C1525       C  0.71432132  0.60526835  0.28299000     0.15600
C1526       C  0.69475499  0.60349583  0.26545878    -0.18900
C1527       C  0.71020646  0.59955855  0.30830137    -0.20700
C1528       C  0.72904894  0.60396861  0.32606401    -0.13300
C1529       C  0.75227773  0.61398356  0.31868902     0.03400
C1530       C  0.75689196  0.61826997  0.29314844    -0.25400
H1531       H  0.72594300  0.62465802  0.21376751     0.08500
H1532       H  0.76037374  0.62687380  0.24396891     0.12100
H1533       H  0.67628088  0.59760822  0.27158016     0.12000
H1534       H  0.69217403  0.59251763  0.31446595     0.11800
H1535       H  0.72517556  0.60023412  0.34562720     0.12300
H1536       H  0.77484986  0.62569284  0.28716984     0.14200
C1537       C  0.54875560  0.81742994  0.38403799    -0.05800
C1538       C  0.53781036  0.84154728  0.38323657    -0.05700
C1539       C  0.51156853  0.84450311  0.38287690    -0.23900
C1540       C  0.49582636  0.82339603  0.38363891     0.18300
C1541       C  0.50679235  0.79914946  0.38466261     0.15600
C1542       C  0.53298584  0.79634453  0.38461866    -0.18900
C1543       C  0.49143510  0.77795491  0.38595213    -0.20700
C1544       C  0.46540124  0.78063340  0.38642818    -0.13300
C1545       C  0.45404990  0.80453026  0.38528641     0.03400
C1546       C  0.46939902  0.82596714  0.38364469    -0.25400
H1547       H  0.54953501  0.85811500  0.38275085     0.08500
H1548       H  0.50360671  0.86327355  0.38216897     0.12100
H1549       H  0.54108596  0.77761631  0.38542851     0.12000
H1550       H  0.49956555  0.75925109  0.38675605     0.11800
H1551       H  0.45406101  0.76381600  0.38744958     0.12300
H1552       H  0.46085787  0.84449125  0.38285432     0.14200
C1553       C  0.61198452  0.73871493  0.32333351    -0.05800
C1554       C  0.60348050  0.71514795  0.33159467    -0.05700
C1555       C  0.60085205  0.69509650  0.31465212    -0.23900
C1556       C  0.60710745  0.69818765  0.28926856     0.18300
C1557       C  0.61441230  0.72220704  0.28070858     0.15600
C1558       C  0.61630967  0.74227220  0.29760284    -0.18900
C1559       C  0.62132327  0.72553364  0.25565256    -0.20700
C1560       C  0.62270863  0.70495848  0.23957795    -0.13300
C1561       C  0.61664530  0.68078907  0.24802659     0.03400
C1562       C  0.60779911  0.67753651  0.27263133    -0.25400
H1563       H  0.59983919  0.71192276  0.35129123     0.08500
H1564       H  0.59507285  0.67691500  0.32161410     0.12100
H1565       H  0.62273797  0.76033174  0.29084191     0.12000
H1566       H  0.62690045  0.74383302  0.24880580     0.11800
H1567       H  0.62948964  0.70775387  0.22064555     0.12300
H1568       H  0.60340187  0.65883919  0.27928590     0.14200
C1569       C  0.75489244  0.67809335  0.40468248    -0.05800
C1570       C  0.73281599  0.66794352  0.41477662    -0.05700
C1571       C  0.71155499  0.68318575  0.41826122    -0.23900
C1572       C  0.71222929  0.70869760  0.41166672     0.18300
C1573       C  0.73522996  0.71930699  0.40366311     0.15600
C1574       C  0.75638828  0.70395785  0.40037284    -0.18900
C1575       C  0.73614985  0.74460132  0.39676959    -0.20700
C1576       C  0.71406584  0.75861260  0.39528771    -0.13300
C1577       C  0.69085744  0.74780964  0.40130138     0.03400
C1578       C  0.69004846  0.72323740  0.41073998    -0.25400
H1579       H  0.73139065  0.64792119  0.41804669     0.08500
H1580       H  0.69421155  0.67470899  0.42458541     0.12100
H1581       H  0.77348009  0.71175589  0.39257380     0.12000
H1582       H  0.75364051  0.75303777  0.39077359     0.11800
H1583       H  0.71490231  0.77744421  0.38776241     0.12300
H1584       H  0.67205202  0.71478351  0.41500911     0.14200
C1585       C  0.61375964  0.69490848  0.14279055    -0.05800
C1586       C  0.59719421  0.70915825  0.15768457    -0.05700
C1587       C  0.59585867  0.73524027  0.15539904    -0.23900
C1588       C  0.61120801  0.74768280  0.13821562     0.18300
C1589       C  0.62611272  0.73348808  0.12132362     0.15600
C1590       C  0.62719610  0.70701744  0.12361244    -0.18900
C1591       C  0.64145467  0.74623239  0.10417291    -0.20700
C1592       C  0.64372695  0.77248043  0.10534408    -0.13300
C1593       C  0.63075553  0.78635756  0.12368774     0.03400
C1594       C  0.61368635  0.77395961  0.13931774    -0.25400
H1595       H  0.58699342  0.70027174  0.17279921     0.08500
H1596       H  0.58419157  0.74578985  0.16835792     0.12100
H1597       H  0.64049288  0.69630537  0.11245554     0.12000
H1598       H  0.65295145  0.73581183  0.09096943     0.11800
H1599       H  0.65733756  0.78166369  0.09344182     0.12300
H1600       H  0.60394429  0.78455047  0.15376523     0.14200
C1601       C  0.62333910  0.84560090  0.30127242    -0.05800
C1602       C  0.60557531  0.83184438  0.28742275    -0.05700
C1603       C  0.60398065  0.83444035  0.26127589    -0.23900
C1604       C  0.62020696  0.85081122  0.24859146     0.18300
C1605       C  0.63679056  0.86606389  0.26275439     0.15600
C1606       C  0.63829326  0.86328521  0.28893687    -0.18900
C1607       C  0.65312306  0.88236030  0.25035188    -0.20700
C1608       C  0.65480774  0.88185548  0.22425870    -0.13300
C1609       C  0.64005287  0.86528261  0.20996714     0.03400
C1610       C  0.62180210  0.85064960  0.22212221    -0.25400
H1611       H  0.59418698  0.81780316  0.29661767     0.08500
H1612       H  0.59106828  0.82262513  0.25087738     0.12100
H1613       H  0.65229149  0.87363757  0.29953937     0.12000
H1614       H  0.66583789  0.89428179  0.26088124     0.11800
H1615       H  0.66921968  0.89296721  0.21527980     0.12300
H1616       H  0.61078717  0.83736039  0.21130786     0.14200
C1617       C  0.95188561  0.66022898  0.12948059    -0.05800
C1618       C  0.96302550  0.63908946  0.11803545    -0.05700
C1619       C  0.98927231  0.63731780  0.11538751    -0.23900
C1620       C  0.00497673  0.65671453  0.12401325     0.18300
C1621       C  0.99399723  0.67783778  0.13584239     0.15600
C1622       C  0.96772424  0.67938709  0.13861655    -0.18900
C1623       C  0.00942277  0.69736456  0.14437561    -0.20700
C1624       C  0.03546003  0.69620193  0.14102995    -0.13300
C1625       C  0.04685875  0.67544009  0.12916124     0.03400
C1626       C  0.03136701  0.65556451  0.12081838    -0.25400
H1627       H  0.95141836  0.62410733  0.11067675     0.08500
H1628       H  0.99725415  0.62093123  0.10625405     0.12100
H1629       H  0.95959577  0.69589287  0.14743307     0.12000
H1630       H  0.00132219  0.71369444  0.15352029     0.11800
H1631       H  0.04672353  0.71169862  0.14784026     0.12300
H1632       H  0.03975578  0.63938399  0.11166714     0.14200
C1633       C  0.81594615  0.73961061  0.11522925    -0.05800
C1634       C  0.82268809  0.76314682  0.10571631    -0.05700
C1635       C  0.80426844  0.78163397  0.10183965    -0.23900
C1636       C  0.77895352  0.77661849  0.10726629     0.18300
C1637       C  0.77193341  0.75219597  0.11482591     0.15600
C1638       C  0.79049273  0.73387810  0.11879184    -0.18900
C1639       C  0.74668318  0.74696047  0.11989655    -0.20700
C1640       C  0.72886662  0.76628062  0.11975819    -0.13300
C1641       C  0.73603349  0.79115412  0.11458199     0.03400
C1642       C  0.76087416  0.79594109  0.10699458    -0.25400
H1643       H  0.84228730  0.76771166  0.10280373     0.08500
H1644       H  0.80995543  0.80016468  0.09575823     0.12100
H1645       H  0.78530109  0.71551696  0.12585538     0.12000
H1646       H  0.74095258  0.72821706  0.12528525     0.11800
H1647       H  0.70978740  0.76196585  0.12528555     0.12300
H1648       H  0.76658281  0.81497184  0.10267558     0.14200
C1649       C  0.69898708  0.61500470  0.13421319    -0.05800
C1650       C  0.71313288  0.59467916  0.14356437    -0.05700
C1651       C  0.73934154  0.59384521  0.14034620    -0.23900
C1652       C  0.75172570  0.61331084  0.12765834     0.18300
C1653       C  0.73713900  0.63243833  0.11614207     0.15600
C1654       C  0.71097004  0.63314958  0.11951356    -0.18900
C1655       C  0.74910701  0.65187724  0.10333829    -0.20700
C1656       C  0.77520047  0.65391112  0.10413175    -0.13300
C1657       C  0.78994500  0.63657675  0.11767993     0.03400
C1658       C  0.77825726  0.61537692  0.12820114    -0.25400
H1659       H  0.70425630  0.58064661  0.15520624     0.08500
H1660       H  0.75004234  0.57886396  0.14914264     0.12100
H1661       H  0.70014527  0.64895364  0.11238814     0.12000
H1662       H  0.73822613  0.66652383  0.09418234     0.11800
H1663       H  0.78379322  0.67035819  0.09589635     0.12300
H1664       H  0.78939289  0.60208558  0.13896938     0.14200
C1665       C  0.86636627  0.62091306  0.20283435    -0.05800
C1666       C  0.85187878  0.60028049  0.21032714    -0.05700
C1667       C  0.84893135  0.59469013  0.23586393    -0.23900
C1668       C  0.85958260  0.61033809  0.25428830     0.18300
C1669       C  0.87506151  0.63050418  0.24672094     0.15600
C1670       C  0.87878983  0.63526077  0.22110581    -0.18900
C1671       C  0.88475903  0.64700439  0.26477089    -0.20700
C1672       C  0.87781125  0.64468561  0.28985215    -0.13300
C1673       C  0.86169768  0.62541329  0.29756175     0.03400
C1674       C  0.85338390  0.60757994  0.27988022    -0.25400
H1675       H  0.84161853  0.58944429  0.19648769     0.08500
H1676       H  0.83692327  0.57922023  0.24118555     0.12100
H1677       H  0.88927912  0.65171226  0.21540769     0.12000
H1678       H  0.89651573  0.66261949  0.25928917     0.11800
H1679       H  0.88419647  0.65867115  0.30318161     0.12300
H1680       H  0.84047502  0.59300550  0.28564779     0.14200
C1681       C  0.95709372  0.86840638  0.33526311    -0.05800
C1682       C  0.96790843  0.86828775  0.35939619    -0.05700
C1683       C  0.99419281  0.86753974  0.36250070    -0.23900
C1684       C  0.01014220  0.86638087  0.34152703     0.18300
C1685       C  0.99926308  0.86610618  0.31728610     0.15600
C1686       C  0.97304796  0.86740366  0.31434031    -0.18900
C1687       C  0.01471667  0.86436338  0.29620751    -0.20700
C1688       C  0.04072152  0.86274012  0.29894446    -0.13300
C1689       C  0.05213273  0.86314978  0.32281325     0.03400
C1690       C  0.03664829  0.86524395  0.34418952    -0.25400
H1691       H  0.95604815  0.86914903  0.37584705     0.08500
H1692       H  0.00201934  0.86771541  0.38128426     0.12100
H1693       H  0.96500767  0.86723046  0.29562054     0.12000
H1694       H  0.00667224  0.86411146  0.27750503     0.11800
H1695       H  0.05200264  0.86142820  0.28211309     0.12300
H1696       H  0.04510946  0.86554972  0.36270430     0.14200
C1697       C  0.88360736  0.72785016  0.20131533    -0.05800
C1698       C  0.87667808  0.72099320  0.22578239    -0.05700
C1699       C  0.87877073  0.73811972  0.24553995    -0.23900
C1700       C  0.88781558  0.76241344  0.24119257     0.18300
C1701       C  0.89645014  0.76901931  0.21707173     0.15600
C1702       C  0.89443730  0.75162416  0.19730617    -0.18900
C1703       C  0.90558388  0.79339122  0.21287153    -0.20700
C1704       C  0.90460005  0.81151670  0.23194993    -0.13300
C1705       C  0.89444892  0.80545964  0.25538294     0.03400
C1706       C  0.88692214  0.78065711  0.26015891    -0.25400
H1707       H  0.86859356  0.70273852  0.22949142     0.08500
H1708       H  0.87234751  0.73269223  0.26401481     0.12100
H1709       H  0.90005064  0.75711763  0.17858436     0.12000
H1710       H  0.91236392  0.79876046  0.19451713     0.11800
H1711       H  0.91011353  0.83063964  0.22787946     0.12300
H1712       H  0.87894508  0.77598844  0.27825700     0.14200
C1713       C  0.81606537  0.87644176  0.25354310    -0.05800
C1714       C  0.82298363  0.88865417  0.23122949    -0.05700
C1715       C  0.80615478  0.89028229  0.21097340    -0.23900
C1716       C  0.78223834  0.87934499  0.21248525     0.18300
C1717       C  0.77493303  0.86770709  0.23515396     0.15600
C1718       C  0.79163707  0.86671655  0.25553979    -0.18900
C1719       C  0.75145279  0.85612022  0.23676071    -0.20700
C1720       C  0.73579100  0.85499486  0.21582543    -0.13300
C1721       C  0.74297617  0.86584305  0.19295930     0.03400
C1722       C  0.76594944  0.87873129  0.19151084    -0.25400
H1723       H  0.84167608  0.89634170  0.22916859     0.08500
H1724       H  0.81217943  0.89931155  0.19383467     0.12100
H1725       H  0.78601356  0.85709725  0.27251725     0.12000
H1726       H  0.74555567  0.84711952  0.25396957     0.11800
H1727       H  0.71812073  0.84506159  0.21732471     0.12300
H1728       H  0.77173378  0.88685878  0.17383326     0.14200
C1729       C  0.79850361  0.87008202  0.36048983    -0.05800
C1730       C  0.78314926  0.88591315  0.34589747    -0.05700
C1731       C  0.75687151  0.88506602  0.34811735    -0.23900
C1732       C  0.74556366  0.86831945  0.36495470     0.18300
C1733       C  0.76108997  0.85369395  0.38096466     0.15600
C1734       C  0.78738238  0.85464829  0.37857544    -0.18900
C1735       C  0.75008312  0.83687385  0.39775590    -0.20700
C1736       C  0.72417869  0.83295956  0.39727805    -0.13300
C1737       C  0.70868998  0.84582228  0.38012880     0.03400
C1738       C  0.71928386  0.86441073  0.36475392    -0.25400
H1739       H  0.79139159  0.89749561  0.33144324     0.08500
H1740       H  0.74539808  0.89647196  0.33568406     0.12100
H1741       H  0.79916057  0.84203343  0.38951885     0.12000
H1742       H  0.76165106  0.82567440  0.41029894     0.11800
H1743       H  0.71633402  0.81864533  0.40931320     0.12300
H1744       H  0.70752046  0.87410967  0.35118097     0.14200
C1745       C  0.87847009  0.79049210  0.36637000    -0.05800
C1746       C  0.86620685  0.78645811  0.38925923    -0.05700
C1747       C  0.86244487  0.76195497  0.39794643    -0.23900
C1748       C  0.87097103  0.74129193  0.38385745     0.18300
C1749       C  0.88583138  0.74540054  0.36233715     0.15600
C1750       C  0.88964136  0.77000083  0.35386479    -0.18900
C1751       C  0.89459257  0.72480909  0.34834253    -0.20700
C1752       C  0.88670471  0.70051115  0.35418512    -0.13300
C1753       C  0.86982715  0.69655168  0.37394294     0.03400
C1754       C  0.86300247  0.71682466  0.38949042    -0.25400
H1755       H  0.85754307  0.80199820  0.39919649     0.08500
H1756       H  0.85135968  0.75913181  0.41471956     0.12100
H1757       H  0.89938423  0.77305607  0.33628862     0.12000
H1758       H  0.90615674  0.72764385  0.33189113     0.11800
H1759       H  0.89192928  0.68516440  0.34186505     0.12300
H1760       H  0.84984115  0.71382194  0.40468276     0.14200
C1761       C  0.45875318  0.17047329  0.38045667    -0.05800
C1762       C  0.46914590  0.19364017  0.38773834    -0.05700
C1763       C  0.49509985  0.19686761  0.38927437    -0.23900
C1764       C  0.51142721  0.17713494  0.38307138     0.18300
C1765       C  0.50145942  0.15361779  0.37577442     0.15600
C1766       C  0.47505785  0.15025496  0.37490042    -0.18900
C1767       C  0.51816211  0.13417924  0.36910373    -0.20700
C1768       C  0.54429526  0.13809262  0.36942638    -0.13300
C1769       C  0.55431867  0.16145487  0.37669910     0.03400
C1770       C  0.53756933  0.18078842  0.38369689    -0.25400
H1771       H  0.45704618  0.20940039  0.39240392     0.08500
H1772       H  0.50240783  0.21499606  0.39497133     0.12100
H1773       H  0.46726937  0.13233629  0.36919244     0.12000
H1774       H  0.51101431  0.11600648  0.36337919     0.11800
H1775       H  0.55666270  0.12281898  0.36398802     0.12300
H1776       H  0.54484048  0.19896505  0.38930923     0.14200
C1777       C  0.62920310  0.44210607  0.16359000    -0.05800
C1778       C  0.61767873  0.45382860  0.14281796    -0.05700
C1779       C  0.61497866  0.48016904  0.14185197    -0.23900
C1780       C  0.62369153  0.49536530  0.16167256     0.18300
C1781       C  0.63547153  0.48367558  0.18241684     0.15600
C1782       C  0.63823066  0.45741516  0.18317768    -0.18900
C1783       C  0.64411720  0.49834599  0.20240517    -0.20700
C1784       C  0.64116757  0.52436762  0.20204455    -0.13300
C1785       C  0.62950606  0.53665104  0.18167438     0.03400
C1786       C  0.62077261  0.52189276  0.16135624    -0.25400
H1787       H  0.61031453  0.44261443  0.12752603     0.08500
H1788       H  0.60582829  0.48861230  0.12573783     0.12100
H1789       H  0.64709044  0.44886094  0.19941384     0.12000
H1790       H  0.65313798  0.48966416  0.21847814     0.11800
H1791       H  0.64813767  0.53491307  0.21798545     0.12300
H1792       H  0.61166325  0.53092231  0.14553225     0.14200
C1793       C  0.55127893  0.36613462  0.16533273    -0.05800
C1794       C  0.53936526  0.35047432  0.14764467    -0.05700
C1795       C  0.51313843  0.34882477  0.14661191    -0.23900
C1796       C  0.49823104  0.36280922  0.16323042     0.18300
C1797       C  0.50998206  0.37884333  0.18088005     0.15600
C1798       C  0.53634120  0.38042174  0.18181085    -0.18900
C1799       C  0.49518193  0.39279849  0.19756093    -0.20700
C1800       C  0.46905495  0.39052549  0.19716691    -0.13300
C1801       C  0.45707019  0.37435362  0.17998743     0.03400
C1802       C  0.47183734  0.36076535  0.16277756    -0.25400
H1803       H  0.55034776  0.33917860  0.13474998     0.08500
H1804       H  0.50453093  0.33641322  0.13295769     0.12100
H1805       H  0.54519458  0.39260828  0.19552688     0.12000
H1806       H  0.50382407  0.40527077  0.21114342     0.11800
H1807       H  0.45819823  0.40140968  0.21051214     0.12300
H1808       H  0.46288222  0.34820530  0.14947336     0.14200
C1809       C  0.61221057  0.30854996  0.24533150    -0.05800
C1810       C  0.60138930  0.31776989  0.26755171    -0.05700
C1811       C  0.59788197  0.30174363  0.28816738    -0.23900
C1812       C  0.60501817  0.27627604  0.28675208     0.18300
C1813       C  0.61401234  0.26664242  0.26368197     0.15600
C1814       C  0.61746123  0.28276778  0.24324587    -0.18900
C1815       C  0.62116536  0.24137557  0.26185154    -0.20700
C1816       C  0.62159580  0.22627231  0.28313935    -0.13300
C1817       C  0.61451469  0.23594001  0.30660634     0.03400
C1818       C  0.60511037  0.26069326  0.30821315    -0.25400
H1819       H  0.59713253  0.33759839  0.26949283     0.08500
H1820       H  0.59071434  0.30951870  0.30554694     0.12100
H1821       H  0.62553944  0.27548498  0.22601774     0.12000
H1822       H  0.62787473  0.23367107  0.24424982     0.11800
H1823       H  0.62899153  0.20731434  0.28159377     0.12300
H1824       H  0.60001209  0.26839287  0.32634907     0.14200
C1825       C  0.68273760  0.03518261  0.11826038    -0.05800
C1826       C  0.70224293  0.02308512  0.10503620    -0.05700
C1827       C  0.70456529  0.99689744  0.10507170    -0.23900
C1828       C  0.68739872  0.98210261  0.11829598     0.18300
C1829       C  0.66770890  0.99388692  0.13170503     0.15600
C1830       C  0.66552688  0.02032551  0.13168378    -0.18900
C1831       C  0.65048944  0.97898082  0.14481413    -0.20700
C1832       C  0.65261530  0.95271656  0.14445829    -0.13300
C1833       C  0.67209032  0.94073701  0.13111642     0.03400
C1834       C  0.68953546  0.95571983  0.11816696    -0.25400
H1835       H  0.71588849  0.03389672  0.09464555     0.08500
H1836       H  0.71979744  0.98821448  0.09469153     0.12100
H1837       H  0.65043954  0.02927742  0.14205527     0.12000
H1838       H  0.63526330  0.98762434  0.15522727     0.11800
H1839       H  0.63890768  0.94176116  0.15461476     0.12300
H1840       H  0.70462117  0.94687733  0.10769562     0.14200
C1841       C  0.64380989  0.11118272  0.20592332    -0.05800
C1842       C  0.62221551  0.12597740  0.20979105    -0.05700
C1843       C  0.61495690  0.13278318  0.23405260    -0.23900
C1844       C  0.62895401  0.12453382  0.25482581     0.18300
C1845       C  0.64919122  0.10755546  0.25124884     0.15600
C1846       C  0.65662354  0.10113853  0.22677234    -0.18900
C1847       C  0.66279792  0.09885355  0.27212788    -0.20700
C1848       C  0.65771737  0.10841187  0.29605745    -0.13300
C1849       C  0.63923002  0.12702748  0.29935014     0.03400
C1850       C  0.62428203  0.13436938  0.27883451    -0.25400
H1851       H  0.61226703  0.13414159  0.19400164     0.08500
H1852       H  0.59923480  0.14559941  0.23647306     0.12100
H1853       H  0.67337766  0.08978526  0.22389805     0.12000
H1854       H  0.67822702  0.08567439  0.26977854     0.11800
H1855       H  0.66962661  0.10281824  0.31162200     0.12300
H1856       H  0.61010213  0.14889219  0.28131655     0.14200
C1857       C  0.63021307  0.18566172  0.13348164    -0.05800
C1858       C  0.61393964  0.19216005  0.15314058    -0.05700
C1859       C  0.60627455  0.21706688  0.15660837    -0.23900
C1860       C  0.61544730  0.23602209  0.14092691     0.18300
C1861       C  0.63049214  0.22950357  0.12004712     0.15600
C1862       C  0.63747369  0.20418574  0.11621463    -0.18900
C1863       C  0.64007429  0.24867386  0.10477400    -0.20700
C1864       C  0.63671649  0.27399535  0.11140586    -0.13300
C1865       C  0.62363401  0.28049434  0.13334084     0.03400
C1866       C  0.61185749  0.26142829  0.14719599    -0.25400
H1867       H  0.60844108  0.17816106  0.16675636     0.08500
H1868       H  0.59464655  0.22173111  0.17263870     0.12100
H1869       H  0.65053037  0.19932382  0.10136326     0.12000
H1870       H  0.65157614  0.24407734  0.08864155     0.11800
H1871       H  0.64615112  0.28832178  0.10059959     0.12300
H1872       H  0.60175871  0.26628895  0.16419655     0.14200
C1873       C  0.95912368  0.12533855  0.31350052    -0.05800
C1874       C  0.97243485  0.12987236  0.29118788    -0.05700
C1875       C  0.99863342  0.12913694  0.29077192    -0.23900
C1876       C  0.01223535  0.12415161  0.31271530     0.18300
C1877       C  0.99935861  0.12104983  0.33564990     0.15600
C1878       C  0.97279612  0.12150193  0.33590044    -0.18900
C1879       C  0.01336707  0.11696219  0.35770132    -0.20700
C1880       C  0.03971172  0.11504271  0.35681980    -0.13300
C1881       C  0.05238857  0.11666956  0.33381284     0.03400
C1882       C  0.03849801  0.12167771  0.31192031    -0.25400
H1883       H  0.96256895  0.13314550  0.27368824     0.08500
H1884       H  0.00825143  0.13194462  0.27311119     0.12100
H1885       H  0.96284362  0.11837239  0.35331563     0.12000
H1886       H  0.00393737  0.11485985  0.37555129     0.11800
H1887       H  0.05010373  0.11143615  0.37394733     0.12300
H1888       H  0.04819710  0.12352135  0.29415167     0.14200
C1889       C  0.88551216  0.04213650  0.31217303    -0.05800
C1890       C  0.89099080  0.03043224  0.28909123    -0.05700
C1891       C  0.89078296  0.00434138  0.28670896    -0.23900
C1892       C  0.88534515  0.98925616  0.30741613     0.18300
C1893       C  0.88017179  0.00064000  0.33086372     0.15600
C1894       C  0.88002655  0.02704975  0.33306176    -0.18900
C1895       C  0.87535012  0.98534845  0.35166965    -0.20700
C1896       C  0.87562706  0.95913998  0.34926267    -0.13300
C1897       C  0.88031328  0.94769525  0.32592041     0.03400
C1898       C  0.88511152  0.96296605  0.30503793    -0.25400
H1899       H  0.89517057  0.04151064  0.27262407     0.08500
H1900       H  0.89490081  0.99596453  0.26862443     0.12100
H1901       H  0.87592172  0.03579297  0.35097890     0.12000
H1902       H  0.87146368  0.99364478  0.36983410     0.11800
H1903       H  0.87190496  0.94778705  0.36565232     0.12300
H1904       H  0.88908226  0.95438233  0.28700416     0.14200
C1905       C  0.75654228  0.09861630  0.17531715    -0.05800
C1906       C  0.78004262  0.09133993  0.16575304    -0.05700
C1907       C  0.80084617  0.08908002  0.18185568    -0.23900
C1908       C  0.79826462  0.09413866  0.20760740     0.18300
C1909       C  0.77409354  0.09951015  0.21738397     0.15600
C1910       C  0.75346807  0.10152393  0.20121514    -0.18900
C1911       C  0.77117974  0.10484574  0.24289556    -0.20700
C1912       C  0.79224892  0.10724288  0.25820009    -0.13300
C1913       C  0.81646460  0.10380258  0.24838678     0.03400
C1914       C  0.81946177  0.09594945  0.22340508    -0.25400
H1915       H  0.78265616  0.08909173  0.14573869     0.08500
H1916       H  0.81913848  0.08476960  0.17399967     0.12100
H1917       H  0.73523829  0.10701847  0.20858116     0.12000
H1918       H  0.75275080  0.10875789  0.25066336     0.11800
H1919       H  0.78973798  0.11320662  0.27747891     0.12300
H1920       H  0.83820628  0.09353566  0.21579614     0.14200
C1921       C  0.80111221  0.11125847  0.35333452    -0.05800
C1922       C  0.78493510  0.09539282  0.33977845    -0.05700
C1923       C  0.75905284  0.09577661  0.34403776    -0.23900
C1924       C  0.74880438  0.11232462  0.36176574     0.18300
C1925       C  0.76503280  0.12653210  0.37732587     0.15600
C1926       C  0.79127257  0.12566680  0.37322001    -0.18900
C1927       C  0.75452806  0.14318563  0.39495803    -0.20700
C1928       C  0.72845193  0.14739598  0.39551628    -0.13300
C1929       C  0.71253437  0.13497307  0.37855137     0.03400
C1930       C  0.72270303  0.11664621  0.36248334    -0.25400
H1931       H  0.79212140  0.08429835  0.32428245     0.08500
H1932       H  0.74693039  0.08456293  0.33213445     0.12100
H1933       H  0.80353221  0.13830080  0.38344714     0.12000
H1934       H  0.76656215  0.15416413  0.40715580     0.11800
H1935       H  0.72096357  0.16185182  0.40777181     0.12300
H1936       H  0.71049362  0.10725111  0.34913800     0.14200
C1937       C  0.82151985  0.54114216  0.37009934    -0.05800
C1938       C  0.79882664  0.52928878  0.36338102    -0.05700
C1939       C  0.79745744  0.50326752  0.36126398    -0.23900
C1940       C  0.81875204  0.48843022  0.36572303     0.18300
C1941       C  0.84196415  0.49996371  0.37158588     0.15600
C1942       C  0.84321403  0.52631953  0.37381160    -0.18900
C1943       C  0.86332421  0.48482449  0.37549252    -0.20700
C1944       C  0.86150651  0.45858197  0.37422923    -0.13300
C1945       C  0.83822669  0.44710177  0.36944799     0.03400
C1946       C  0.81702231  0.46219664  0.36485196    -0.25400
H1947       H  0.78182852  0.54011990  0.36014523     0.08500
H1948       H  0.77959503  0.49472384  0.35649584     0.12100
H1949       H  0.86085299  0.53518140  0.37881213     0.12000
H1950       H  0.88133885  0.49325055  0.37982722     0.11800
H1951       H  0.87811373  0.44723757  0.37772970     0.12300
H1952       H  0.79907572  0.45346978  0.36071794     0.14200
C1953       C  0.76152027  0.38389491  0.30229663    -0.05800
C1954       C  0.73852483  0.39410923  0.31037843    -0.05700
C1955       C  0.71771567  0.39469806  0.29416823    -0.23900
C1956       C  0.71972920  0.38522339  0.26964537     0.18300
C1957       C  0.74340095  0.37667440  0.26097085     0.15600
C1958       C  0.76405871  0.37606987  0.27731423    -0.18900
C1959       C  0.74576374  0.36749483  0.23651619    -0.20700
C1960       C  0.72461356  0.36522391  0.22124929    -0.13300
C1961       C  0.70057047  0.37196838  0.23012283     0.03400
C1962       C  0.69838337  0.38288348  0.25409688    -0.25400
H1963       H  0.73618861  0.40000734  0.32968324     0.08500
H1964       H  0.69981209  0.40151090  0.30115260     0.12100
H1965       H  0.78182130  0.36819302  0.27101453     0.12000
H1966       H  0.76383888  0.36118510  0.22948427     0.11800
H1967       H  0.72703250  0.35720895  0.20271802     0.12300
H1968       H  0.68003089  0.38834654  0.26110602     0.14200
C1969       C  0.87973279  0.19696937  0.35253378    -0.05800
C1970       C  0.89739950  0.20953302  0.33769310    -0.05700
C1971       C  0.89902258  0.23573478  0.33833595    -0.23900
C1972       C  0.88330310  0.24973607  0.35421715     0.18300
C1973       C  0.86674550  0.23709341  0.37059369     0.15600
C1974       C  0.86475250  0.21076692  0.36932761    -0.18900
C1975       C  0.85148149  0.25112686  0.38690934    -0.20700
C1976       C  0.85155922  0.27739954  0.38600804    -0.13300
C1977       C  0.86649330  0.28998966  0.36845943     0.03400
C1978       C  0.88278245  0.27611240  0.35299149    -0.25400
H1979       H  0.90867575  0.19918398  0.32425158     0.08500
H1980       H  0.91186900  0.24508121  0.32571703     0.12100
H1981       H  0.85083548  0.20111543  0.38052605     0.12000
H1982       H  0.83875670  0.24179365  0.39965421     0.11800
H1983       H  0.83852833  0.28783256  0.39769544     0.12300
H1984       H  0.89411678  0.28581132  0.33921719     0.14200
C1985       C  0.76760858  0.30243615  0.37199266    -0.05800
C1986       C  0.77677556  0.27758552  0.37202141    -0.05700
C1987       C  0.76057816  0.25749817  0.37601972    -0.23900
C1988       C  0.73488329  0.26189386  0.37971784     0.18300
C1989       C  0.72571360  0.28685461  0.38122599     0.15600
C1990       C  0.74221461  0.30699960  0.37767532    -0.18900
C1991       C  0.69996025  0.29117480  0.38478423    -0.20700
C1992       C  0.68321376  0.27105019  0.38485545    -0.13300
C1993       C  0.69200463  0.24628623  0.38153860     0.03400
C1994       C  0.71801928  0.24178335  0.38026723    -0.25400
H1995       H  0.79637299  0.27359102  0.36815420     0.08500
H1996       H  0.76796900  0.23848938  0.37509643     0.12100
H1997       H  0.73498481  0.32609810  0.37790546     0.12000
H1998       H  0.69262186  0.31016746  0.38624349     0.11800
H1999       H  0.66326476  0.27501665  0.38612900     0.12300
H2000       H  0.72506246  0.22273906  0.37803370     0.14200
C2001       C  0.95633275  0.31715391  0.10984762    -0.05800
C2002       C  0.96801916  0.30141175  0.09203017    -0.05700
C2003       C  0.99402841  0.29873861  0.09130679    -0.23900
C2004       C  0.00911392  0.31177171  0.10835546     0.18300
C2005       C  0.99792495  0.32821248  0.12602205     0.15600
C2006       C  0.97148624  0.33088477  0.12665636    -0.18900
C2007       C  0.01344587  0.34125961  0.14292414    -0.20700
C2008       C  0.03962746  0.33779980  0.14244186    -0.13300
C2009       C  0.05070933  0.32106448  0.12521009     0.03400
C2010       C  0.03523122  0.30826881  0.10812529    -0.25400
H2011       H  0.95697254  0.29068400  0.07872586     0.08500
H2012       H  0.00232444  0.28616503  0.07757855     0.12100
H2013       H  0.96276907  0.34295365  0.14056665     0.12000
H2014       H  0.00534152  0.35394913  0.15664021     0.11800
H2015       H  0.05115985  0.34780424  0.15589621     0.12300
H2016       H  0.04351088  0.29541862  0.09462732     0.14200
C2017       C  0.73942091  0.18624575  0.11601144    -0.05800
C2018       C  0.73074937  0.21051767  0.12218652    -0.05700
C2019       C  0.74706399  0.23098950  0.12187506    -0.23900
C2020       C  0.77238908  0.22754107  0.11556221     0.18300
C2021       C  0.78093810  0.20348891  0.10794037     0.15600
C2022       C  0.76435337  0.18307404  0.10794133    -0.18900
C2023       C  0.80623905  0.19998206  0.10165364    -0.20700
C2024       C  0.82318621  0.21974574  0.10411792    -0.13300
C2025       C  0.81517055  0.24344373  0.11288688     0.03400
C2026       C  0.78952429  0.24741641  0.11784311    -0.25400
H2027       H  0.71154012  0.21354337  0.12822318     0.08500
H2028       H  0.74009345  0.24932168  0.12751803     0.12100
H2029       H  0.77128526  0.16448713  0.10310281     0.12000
H2030       H  0.81310616  0.18173115  0.09563162     0.11800
H2031       H  0.84280154  0.21616292  0.09996311     0.12300
H2032       H  0.78306504  0.26562899  0.12443140     0.14200
C2033       C  0.90118971  0.24422187  0.17631547    -0.05800
C2034       C  0.90808015  0.21990526  0.16878252    -0.05700
C2035       C  0.90854405  0.20038279  0.18631245    -0.23900
C2036       C  0.90178248  0.20508212  0.21134261     0.18300
C2037       C  0.89697755  0.23000506  0.21927313     0.15600
C2038       C  0.89719856  0.24945167  0.20175490    -0.18900
C2039       C  0.88982032  0.23481498  0.24407524    -0.20700
C2040       C  0.88555985  0.21494116  0.26046467    -0.13300
C2041       C  0.88868348  0.18998275  0.25235100     0.03400
C2042       C  0.89789782  0.18522611  0.22807309    -0.25400
H2043       H  0.91084062  0.21561186  0.14911636     0.08500
H2044       H  0.91241731  0.18139505  0.17995728     0.12100
H2045       H  0.89171619  0.26830063  0.20743971     0.12000
H2046       H  0.88628288  0.25387321  0.25043240     0.11800
H2047       H  0.87892204  0.21909971  0.27920546     0.12300
H2048       H  0.90062581  0.16604672  0.22168212     0.14200
C2049       C  0.88385170  0.35491395  0.19738893    -0.05800
C2050       C  0.87319331  0.37879558  0.20128520    -0.05700
C2051       C  0.87103699  0.38860401  0.22559125    -0.23900
C2052       C  0.87970666  0.37476234  0.24631788     0.18300
C2053       C  0.89294903  0.35201846  0.24229831     0.15600
C2054       C  0.89491638  0.34223604  0.21785586    -0.18900
C2055       C  0.90198324  0.33837171  0.26298932    -0.20700
C2056       C  0.89564455  0.34573395  0.28739722    -0.13300
C2057       C  0.88002576  0.36669760  0.29144030     0.03400
C2058       C  0.87329821  0.38194341  0.27091013    -0.25400
H2059       H  0.86462951  0.38891812  0.18583847     0.08500
H2060       H  0.86116797  0.40627367  0.22829820     0.12100
H2061       H  0.90341532  0.32387281  0.21499279     0.12000
H2062       H  0.91238607  0.32100837  0.26025751     0.11800
H2063       H  0.90062857  0.33349080  0.30286388     0.12300
H2064       H  0.86096935  0.39797691  0.27388688     0.14200
C2065       C  0.80054629  0.35446965  0.12381644    -0.05800
C2066       C  0.79286736  0.37479189  0.13880733    -0.05700
C2067       C  0.76729751  0.38074338  0.14140541    -0.23900
C2068       C  0.74889747  0.36587668  0.12972372     0.18300
C2069       C  0.75651693  0.34585374  0.11391438     0.15600
C2070       C  0.78231097  0.34055941  0.11072833    -0.18900
C2071       C  0.73822451  0.33018445  0.10321929    -0.20700
C2072       C  0.71285532  0.33320383  0.10951035    -0.13300
C2073       C  0.70515674  0.35245296  0.12586250     0.03400
C2074       C  0.72316240  0.36936833  0.13519646    -0.25400
H2075       H  0.80663042  0.38526996  0.14954215     0.08500
H2076       H  0.76188013  0.39602030  0.15374274     0.12100
H2077       H  0.78810866  0.32430893  0.09984568     0.12000
H2078       H  0.74367868  0.31466574  0.09119864     0.11800
H2079       H  0.69930369  0.31972057  0.10253738     0.12300
H2080       H  0.71743181  0.38374838  0.14845940     0.14200
C2081       C  0.61904474  0.81993299  0.55511021    -0.05800
C2082       C  0.60458461  0.80064371  0.54418198    -0.05700
C2083       C  0.60338204  0.79744924  0.51832408    -0.23900
C2084       C  0.61655340  0.81347093  0.50243745     0.18300
C2085       C  0.63091495  0.83329861  0.51269052     0.15600
C2086       C  0.63211496  0.83648718  0.53910311    -0.18900
C2087       C  0.64388237  0.84926326  0.49622351    -0.20700
C2088       C  0.64276695  0.84537626  0.47010121    -0.13300
C2089       C  0.62869895  0.82542752  0.45989950     0.03400
C2090       C  0.61557617  0.80968454  0.47640748    -0.25400
H2091       H  0.59417591  0.78759433  0.55567880     0.08500
H2092       H  0.59220860  0.78222210  0.51074691     0.12100
H2093       H  0.64331849  0.85147376  0.54708848     0.12000
H2094       H  0.65498076  0.86465911  0.50352706     0.11800
H2095       H  0.65305102  0.85787818  0.45790650     0.12300
H2096       H  0.60453253  0.79426207  0.46902417     0.14200
C2097       C  0.61465087  0.68203239  0.75949441    -0.05800
C2098       C  0.60359830  0.67487065  0.73663958    -0.05700
C2099       C  0.60025527  0.69254653  0.71745733    -0.23900
C2100       C  0.60777324  0.71757400  0.72103833     0.18300
C2101       C  0.61692997  0.72516856  0.74479549     0.15600
C2102       C  0.62032380  0.70736157  0.76379802    -0.18900
C2103       C  0.62405979  0.75013124  0.74871874    -0.20700
C2104       C  0.62420578  0.76698888  0.72877727    -0.13300
C2105       C  0.61726084  0.75919142  0.70449838     0.03400
C2106       C  0.60785222  0.73472970  0.70100073    -0.25400
H2107       H  0.59907350  0.65536575  0.73307590     0.08500
H2108       H  0.59290966  0.68640264  0.69948773     0.12100
H2109       H  0.62859319  0.71295291  0.78157978     0.12000
H2110       H  0.63068610  0.75632997  0.76695172     0.11800
H2111       H  0.63103130  0.78583800  0.73216486     0.12300
H2112       H  0.60213163  0.72855594  0.68245547     0.14200
C2113       C  0.82020873  0.62436959  0.54750994    -0.05800
C2114       C  0.79697923  0.62789999  0.53520228    -0.05700
C2115       C  0.79533835  0.62734896  0.50917394    -0.23900
C2116       C  0.81691085  0.62347152  0.49476847     0.18300
C2117       C  0.84061904  0.62093296  0.50663208     0.15600
C2118       C  0.84212739  0.62120996  0.53304328    -0.18900
C2119       C  0.86221228  0.61783827  0.49177483    -0.20700
C2120       C  0.86016875  0.61658535  0.46554882    -0.13300
C2121       C  0.83645993  0.61787201  0.45391258     0.03400
C2122       C  0.81499540  0.62171288  0.46865884    -0.25400
H2123       H  0.77977822  0.63050667  0.54573007     0.08500
H2124       H  0.77708107  0.62960476  0.50031624     0.12100
H2125       H  0.86017624  0.61875584  0.54225919     0.12000
H2126       H  0.88061097  0.61614440  0.50043069     0.11800
H2127       H  0.87696916  0.61390516  0.45442140     0.12300
H2128       H  0.79668478  0.62334524  0.45973312     0.14200
C2129       C  0.75877050  0.69082653  0.62116778    -0.05800
C2130       C  0.76711427  0.71550568  0.62569663    -0.05700
C2131       C  0.75041650  0.73573197  0.62503578    -0.23900
C2132       C  0.72498510  0.73181015  0.61969739     0.18300
C2133       C  0.71656355  0.70752522  0.61299923     0.15600
C2134       C  0.73357834  0.68708077  0.61372332    -0.18900
C2135       C  0.69100538  0.70404812  0.60712847    -0.20700
C2136       C  0.67377379  0.72395709  0.60977910    -0.13300
C2137       C  0.68189374  0.74747509  0.61850850     0.03400
C2138       C  0.70764301  0.75152102  0.62243585    -0.25400
H2139       H  0.78646166  0.71915011  0.63091448     0.08500
H2140       H  0.75723032  0.75432643  0.62975340     0.12100
H2141       H  0.72692340  0.66824176  0.60983952     0.12000
H2142       H  0.68416657  0.68569439  0.60160972     0.11800
H2143       H  0.65395240  0.72054994  0.60661902     0.12300
H2144       H  0.71400232  0.76977746  0.62890771     0.14200
C2145       C  0.75602908  0.60624929  0.68863382    -0.05800
C2146       C  0.73313205  0.59503249  0.68198394    -0.05700
C2147       C  0.71375334  0.59336440  0.69961293    -0.23900
C2148       C  0.71721104  0.60285805  0.72397637     0.18300
C2149       C  0.74103966  0.61223898  0.73110961     0.15600
C2150       C  0.76026694  0.61369726  0.71346073    -0.18900
C2151       C  0.74486067  0.62154086  0.75532368    -0.20700
C2152       C  0.72485706  0.62307187  0.77195630    -0.13300
C2153       C  0.70060132  0.61541181  0.76465869     0.03400
C2154       C  0.69705705  0.60446572  0.74088332    -0.25400
H2155       H  0.72963843  0.58925497  0.66280718     0.08500
H2156       H  0.69572340  0.58584812  0.69385321     0.12100
H2157       H  0.77809345  0.62216886  0.71860695     0.12000
H2158       H  0.76310359  0.62855214  0.76109530     0.11800
H2159       H  0.72825566  0.63125735  0.79026189     0.12300
H2160       H  0.67850949  0.59825218  0.73516148     0.14200
C2161       C  0.67113922  0.86734205  0.05034929    -0.05800
C2162       C  0.64860814  0.87562932  0.03906095    -0.05700
C2163       C  0.64649505  0.87740003  0.01286252    -0.23900
C2164       C  0.66688303  0.87097734  0.99737735     0.18300
C2165       C  0.68951356  0.86249478  0.00855522     0.15600
C2166       C  0.69146793  0.86069517  0.03477691    -0.18900
C2167       C  0.70997378  0.85605136  0.99335464    -0.20700
C2168       C  0.70819123  0.85807924  0.96732391    -0.13300
C2169       C  0.68588819  0.86659044  0.95572476     0.03400
C2170       C  0.66516484  0.87295051  0.97099766    -0.25400
H2171       H  0.63263119  0.88089918  0.05049214     0.08500
H2172       H  0.62894335  0.88392884  0.00472574     0.12100
H2173       H  0.70900787  0.85426376  0.04304667     0.12000
H2174       H  0.72745910  0.84947465  0.00161194     0.11800
H2175       H  0.72444825  0.85291130  0.95623776     0.12300
H2176       H  0.64780977  0.87947002  0.96243035     0.14200
C2177       C  0.62887371  0.86673621  0.70806913    -0.05800
C2178       C  0.64495847  0.88623709  0.71536148    -0.05700
C2179       C  0.64715435  0.89308324  0.74057311    -0.23900
C2180       C  0.63389490  0.87993846  0.75901812     0.18300
C2181       C  0.61645317  0.86126416  0.75183087     0.15600
C2182       C  0.61378429  0.85500411  0.72623512    -0.18900
C2183       C  0.60389187  0.84762460  0.77053166    -0.20700
C2184       C  0.61047362  0.85065058  0.79588318    -0.13300
C2185       C  0.62942962  0.86757999  0.80282602     0.03400
C2186       C  0.63985025  0.88327218  0.78445970    -0.25400
H2187       H  0.65699538  0.89512284  0.70167650     0.08500
H2188       H  0.66060980  0.90742283  0.74580037     0.12100
H2189       H  0.60185864  0.83944074  0.72074730     0.12000
H2190       H  0.59043334  0.83324940  0.76543135     0.11800
H2191       H  0.60260710  0.83803558  0.80966989     0.12300
H2192       H  0.65480468  0.89607531  0.78971563     0.14200
C2193       C  0.64133442  0.78860978  0.88673685    -0.05800
C2194       C  0.66008710  0.77529292  0.89982591    -0.05700
C2195       C  0.65964065  0.74898437  0.90087175    -0.23900
C2196       C  0.64028628  0.73557675  0.88897180     0.18300
C2197       C  0.62019125  0.74901136  0.87766702     0.15600
C2198       C  0.62093026  0.77543409  0.87649318    -0.18900
C2199       C  0.60086923  0.73574284  0.86569593    -0.20700
C2200       C  0.60273418  0.70971350  0.86261018    -0.13300
C2201       C  0.62372085  0.69638275  0.87171675     0.03400
C2202       C  0.64182957  0.70922881  0.88608034    -0.25400
H2203       H  0.67617638  0.78512401  0.90748895     0.08500
H2204       H  0.67519979  0.73911687  0.90968484     0.12100
H2205       H  0.60664206  0.78561738  0.86602478     0.12000
H2206       H  0.58524560  0.74567645  0.85707479     0.11800
H2207       H  0.58889593  0.70026207  0.85104108     0.12300
H2208       H  0.65845787  0.69922799  0.89251652     0.14200
C2209       C  0.88089195  0.66215227  0.95640326    -0.05800
C2210       C  0.88035949  0.63768203  0.96635219    -0.05700
C2211       C  0.87826363  0.63381779  0.99226997    -0.23900
C2212       C  0.87703799  0.65434164  0.00880984     0.18300
C2213       C  0.87778912  0.67900174  0.99895440     0.15600
C2214       C  0.87945173  0.68271720  0.97294840    -0.18900
C2215       C  0.87720163  0.69961468  0.01528344    -0.20700
C2216       C  0.87645493  0.69592615  0.04114354    -0.13300
C2217       C  0.87580275  0.67157390  0.05130127     0.03400
C2218       C  0.87560170  0.65075427  0.03499224    -0.25400
H2219       H  0.88130354  0.62149698  0.95404842     0.08500
H2220       H  0.87780314  0.61476074  0.99938531     0.12100
H2221       H  0.87998119  0.70170749  0.96561942     0.12000
H2222       H  0.87774147  0.71864009  0.00807196     0.11800
H2223       H  0.87642995  0.71224032  0.05333006     0.12300
H2224       H  0.87528521  0.63190348  0.04266873     0.14200
C2225       C  0.87662451  0.62940666  0.79769539    -0.05800
C2226       C  0.86202313  0.60804630  0.79285869    -0.05700
C2227       C  0.85782945  0.60006386  0.76817532    -0.23900
C2228       C  0.86843691  0.61317831  0.74801927     0.18300
C2229       C  0.88525459  0.63309970  0.75286326     0.15600
C2230       C  0.88915023  0.64117279  0.77770472    -0.18900
C2231       C  0.89618045  0.64591335  0.73266682    -0.20700
C2232       C  0.88861603  0.64070183  0.70800962    -0.13300
C2233       C  0.86992965  0.62275530  0.70326345     0.03400
C2234       C  0.86084122  0.60818521  0.72323736    -0.25400
H2235       H  0.85213465  0.59882751  0.80796847     0.08500
H2236       H  0.84511305  0.58456629  0.76479246     0.12100
H2237       H  0.90050916  0.65766118  0.78135643     0.12000
H2238       H  0.90931737  0.66106480  0.73602226     0.11800
H2239       H  0.89556600  0.65236365  0.69294124     0.12300
H2240       H  0.84626037  0.59443736  0.71968139     0.14200
C2241       C  0.80218313  0.63027649  0.88161369    -0.05800
C2242       C  0.78945605  0.64251439  0.90117889    -0.05700
C2243       C  0.76321818  0.64136536  0.90275130    -0.23900
C2244       C  0.74942269  0.62769637  0.88492004     0.18300
C2245       C  0.76237807  0.61309727  0.86682889     0.15600
C2246       C  0.78870139  0.61469217  0.86513632    -0.18900
C2247       C  0.74864367  0.59879837  0.84947674    -0.20700
C2248       C  0.72241813  0.60059348  0.84868416    -0.13300
C2249       C  0.70959756  0.61696208  0.86494086     0.03400
C2250       C  0.72305167  0.62984526  0.88361617    -0.25400
H2251       H  0.79958050  0.65480190  0.91385813     0.08500
H2252       H  0.75365408  0.65236159  0.91698223     0.12100
H2253       H  0.79850584  0.60532438  0.84992220     0.12000
H2254       H  0.75822199  0.58726371  0.83567953     0.11800
H2255       H  0.71227218  0.59066728  0.83408509     0.12300
H2256       H  0.71315357  0.64252671  0.89615474     0.14200
C2257       C  0.81695767  0.73874519  0.88994268    -0.05800
C2258       C  0.82526562  0.76295960  0.89658438    -0.05700
C2259       C  0.80842288  0.78320532  0.89752558    -0.23900
C2260       C  0.78294333  0.77962083  0.89184600     0.18300
C2261       C  0.77416722  0.75505534  0.88681390     0.15600
C2262       C  0.79114521  0.73478924  0.88605909    -0.18900
C2263       C  0.74873245  0.75129860  0.88134232    -0.20700
C2264       C  0.73240711  0.77177375  0.87944443    -0.13300
C2265       C  0.74112091  0.79651186  0.88293402     0.03400
C2266       C  0.76634597  0.80024162  0.88995872    -0.25400
H2267       H  0.84503979  0.76656382  0.89983444     0.08500
H2268       H  0.81550952  0.80180660  0.90170338     0.12100
H2269       H  0.78442503  0.71621426  0.88112903     0.12000
H2270       H  0.74161418  0.73259869  0.87766911     0.11800
H2271       H  0.71303782  0.76818637  0.87427332     0.12300
H2272       H  0.77329569  0.81913763  0.89287748     0.14200
C2273       C  0.86345506  0.69994860  0.62483272    -0.05800
C2274       C  0.85187855  0.71349815  0.60537574    -0.05700
C2275       C  0.85424414  0.73965939  0.60417213    -0.23900
C2276       C  0.86849650  0.75253843  0.62225103     0.18300
C2277       C  0.88203657  0.73870488  0.64053397     0.15600
C2278       C  0.87919775  0.71251953  0.64186129    -0.18900
C2279       C  0.89671733  0.75147026  0.65830262    -0.20700
C2280       C  0.89645594  0.77771118  0.65918899    -0.13300
C2281       C  0.88128575  0.79152568  0.64257544     0.03400
C2282       C  0.86796802  0.77894539  0.62358212    -0.25400
H2283       H  0.83941469  0.70409721  0.59230740     0.08500
H2284       H  0.84391983  0.74990786  0.58989141     0.12100
H2285       H  0.88802648  0.70208010  0.65699799     0.12000
H2286       H  0.90732573  0.74117469  0.67234747     0.11800
H2287       H  0.90643814  0.78715178  0.67421818     0.12300
H2288       H  0.85595820  0.78960166  0.61097207     0.14200
C2289       C  0.88505100  0.79824100  0.74422376    -0.05800
C2290       C  0.88148733  0.77345544  0.73571452    -0.05700
C2291       C  0.88379064  0.75320359  0.75214240    -0.23900
C2292       C  0.88973521  0.75730995  0.77741286     0.18300
C2293       C  0.89508205  0.78190888  0.78590176     0.15600
C2294       C  0.89283367  0.80224633  0.76919509    -0.18900
C2295       C  0.90124071  0.78581304  0.81126020    -0.20700
C2296       C  0.90055560  0.76580159  0.82828663    -0.13300
C2297       C  0.89365700  0.74171663  0.82015322     0.03400
C2298       C  0.88900130  0.73743155  0.79459380    -0.25400
H2299       H  0.87593548  0.76972887  0.71650674     0.08500
H2300       H  0.87998137  0.73441192  0.74527794     0.12100
H2301       H  0.89590336  0.82121170  0.77596168     0.12000
H2302       H  0.90549028  0.80450243  0.81811888     0.11800
H2303       H  0.90378794  0.76944500  0.84802550     0.12300
H2304       H  0.88348035  0.71883117  0.78834860     0.14200
C2305       C  0.80074870  0.86805169  0.63654923    -0.05800
C2306       C  0.79599744  0.84869931  0.61928950    -0.05700
C2307       C  0.77128724  0.84271331  0.61252518    -0.23900
C2308       C  0.75098072  0.85618351  0.62274169     0.18300
C2309       C  0.75569170  0.87722674  0.63824829     0.15600
C2310       C  0.78058540  0.88295832  0.64514861    -0.18900
C2311       C  0.73533092  0.89084996  0.64820478    -0.20700
C2312       C  0.71062400  0.88254702  0.64446714    -0.13300
C2313       C  0.70594312  0.86037018  0.63094333     0.03400
C2314       C  0.72616204  0.84783447  0.61930797    -0.25400
H2315       H  0.81119169  0.83664486  0.61294590     0.08500
H2316       H  0.76801039  0.82659661  0.60051191     0.12100
H2317       H  0.78413556  0.89765427  0.65881841     0.12000
H2318       H  0.73857705  0.90713983  0.65999017     0.11800
H2319       H  0.69538132  0.89231807  0.65382374     0.12300
H2320       H  0.72269230  0.83064314  0.60891821     0.14200
C2321       C  0.81463983  0.88287896  0.74934472    -0.05800
C2322       C  0.81983624  0.89828731  0.77012026    -0.05700
C2323       C  0.80178493  0.90162507  0.78899197    -0.23900
C2324       C  0.77837567  0.88957208  0.78727334     0.18300
C2325       C  0.77246385  0.87577708  0.76533336     0.15600
C2326       C  0.79048943  0.87274394  0.74651993    -0.18900
C2327       C  0.74928562  0.86364621  0.76328358    -0.20700
C2328       C  0.73304362  0.86313044  0.78366659    -0.13300
C2329       C  0.73946320  0.87504957  0.80632679     0.03400
C2330       C  0.76153658  0.88946358  0.80765055    -0.25400
H2331       H  0.83830610  0.90644849  0.77250634     0.08500
H2332       H  0.80660838  0.91253020  0.80548762     0.12100
H2333       H  0.78620377  0.86119838  0.73027229     0.12000
H2334       H  0.74434551  0.85331493  0.74644284     0.11800
H2335       H  0.71589205  0.85231378  0.78214317     0.12300
H2336       H  0.76656859  0.89872446  0.82507422     0.14200
C2337       C  0.16870386  0.61504787  0.54500677    -0.05800
C2338       C  0.14881287  0.62876876  0.53401367    -0.05700
C2339       C  0.14609474  0.63010419  0.50787595    -0.23900
C2340       C  0.16306729  0.61755274  0.49204488     0.18300
C2341       C  0.18282960  0.60329988  0.50286500     0.15600
C2342       C  0.18560642  0.60223803  0.52915495    -0.18900
C2343       C  0.19964214  0.59046852  0.48719636    -0.20700
C2344       C  0.19724950  0.59203886  0.46113577    -0.13300
C2345       C  0.17798788  0.60650374  0.44991137     0.03400
C2346       C  0.16076316  0.61912029  0.46565121    -0.25400
H2347       H  0.13550935  0.63886914  0.54566177     0.08500
H2348       H  0.13075915  0.64108570  0.50004840     0.12100
H2349       H  0.20091728  0.59140154  0.53725671     0.12000
H2350       H  0.21481606  0.57930898  0.49509647     0.11800
H2351       H  0.21076428  0.58194974  0.44972511     0.12300
H2352       H  0.14575177  0.63027052  0.45743269     0.14200
C2353       C  0.45083332  0.81497532  0.63254647    -0.05800
C2354       C  0.46186615  0.79093503  0.63365170    -0.05700
C2355       C  0.48794376  0.78801030  0.63503847    -0.23900
C2356       C  0.50363859  0.80907180  0.63484007     0.18300
C2357       C  0.49289866  0.83339468  0.63329563     0.15600
C2358       C  0.46649757  0.83623973  0.63256249    -0.18900
C2359       C  0.50881623  0.85434139  0.63222729    -0.20700
C2360       C  0.53502620  0.85121011  0.63267816    -0.13300
C2361       C  0.54585110  0.82711519  0.63469510     0.03400
C2362       C  0.52990765  0.80612852  0.63586463    -0.25400
H2363       H  0.45021867  0.77429213  0.63374380     0.08500
H2364       H  0.49584551  0.76922410  0.63607885     0.12100
H2365       H  0.45819259  0.85485379  0.63142106     0.12000
H2366       H  0.50100632  0.87313802  0.63083166     0.11800
H2367       H  0.54685308  0.86767511  0.63160484     0.12300
H2368       H  0.53795156  0.78739567  0.63700179     0.14200
C2369       C  0.36983434  0.80597873  0.45968987    -0.05800
C2370       C  0.35850391  0.78544486  0.47176525    -0.05700
C2371       C  0.35629732  0.78470853  0.49777125    -0.23900
C2372       C  0.36539446  0.80446724  0.51247716     0.18300
C2373       C  0.37652580  0.82547940  0.50081834     0.15600
C2374       C  0.37863199  0.82617879  0.47442336    -0.18900
C2375       C  0.38563860  0.84514368  0.51587033    -0.20700
C2376       C  0.38414707  0.84372069  0.54210235    -0.13300
C2377       C  0.37345251  0.82263824  0.55381454     0.03400
C2378       C  0.36384169  0.80323797  0.53870602    -0.25400
H2379       H  0.35144737  0.76963279  0.46108775     0.08500
H2380       H  0.34768069  0.76848288  0.50640821     0.12100
H2381       H  0.38743462  0.84212699  0.46546907     0.12000
H2382       H  0.39420403  0.86146952  0.50738693     0.11800
H2383       H  0.39169830  0.85898333  0.55322752     0.12300
H2384       H  0.35550676  0.78685916  0.54735170     0.14200
C2385       C  0.24241621  0.68492683  0.61199986    -0.05800
C2386       C  0.26510892  0.67929070  0.59979384    -0.05700
C2387       C  0.28442639  0.69713264  0.59892113    -0.23900
C2388       C  0.28124531  0.72089503  0.61010030     0.18300
C2389       C  0.25778685  0.72722973  0.62083217     0.15600
C2390       C  0.23860703  0.70923993  0.62171513    -0.18900
C2391       C  0.25432377  0.75100128  0.63168393    -0.20700
C2392       C  0.27434833  0.76782956  0.63334484    -0.13300
C2393       C  0.29832872  0.76119934  0.62430524     0.03400
C2394       C  0.30137367  0.73794409  0.61187521    -0.25400
H2395       H  0.26847250  0.66063268  0.59234758     0.08500
H2396       H  0.30221126  0.69198342  0.59040779     0.12100
H2397       H  0.22105125  0.71375814  0.63106582     0.12000
H2398       H  0.23634212  0.75625234  0.63973148     0.11800
H2399       H  0.27129864  0.78562699  0.64276656     0.12300
H2400       H  0.31965407  0.73263096  0.60456383     0.14200
C2401       C  0.45903662  0.61134522  0.81757886    -0.05800
C2402       C  0.47106355  0.60285777  0.79558695    -0.05700
C2403       C  0.49717200  0.60219380  0.79380330    -0.23900
C2404       C  0.51204577  0.60997121  0.81398307     0.18300
C2405       C  0.50041667  0.61899470  0.83610679     0.15600
C2406       C  0.47391229  0.61976572  0.83776761    -0.18900
C2407       C  0.51557686  0.62683842  0.85618754    -0.20700
C2408       C  0.54183906  0.62563395  0.85438792    -0.13300
C2409       C  0.55353813  0.61649192  0.83249818     0.03400
C2410       C  0.53837866  0.60874968  0.81232792    -0.25400
H2411       H  0.46023062  0.59653124  0.77955930     0.08500
H2412       H  0.50572689  0.59538465  0.77664725     0.12100
H2413       H  0.46496667  0.62640203  0.85479066     0.12000
H2414       H  0.50714251  0.63385860  0.87331008     0.11800
H2415       H  0.55300727  0.63185652  0.87022091     0.12300
H2416       H  0.54704064  0.60183191  0.79525974     0.14200
C2417       C  0.31458995  0.60534940  0.74858596    -0.05800
C2418       C  0.32202944  0.59800735  0.72432232    -0.05700
C2419       C  0.30469948  0.59754927  0.70460431    -0.23900
C2420       C  0.27960964  0.60445556  0.70876135     0.18300
C2421       C  0.27166347  0.61059492  0.73332573     0.15600
C2422       C  0.28914556  0.61087354  0.75308507    -0.18900
C2423       C  0.24657754  0.61742161  0.73753403    -0.20700
C2424       C  0.22981831  0.61941715  0.71744974    -0.13300
C2425       C  0.23781551  0.61463607  0.69273588     0.03400
C2426       C  0.26261171  0.60637089  0.68863843    -0.25400
H2427       H  0.34151084  0.59360221  0.72029697     0.08500
H2428       H  0.31111667  0.59262644  0.68595069     0.12100
H2429       H  0.28313286  0.61647969  0.77169683     0.12000
H2430       H  0.24009345  0.62197858  0.75625722     0.11800
H2431       H  0.21074222  0.62553395  0.72124177     0.12300
H2432       H  0.26899366  0.60246202  0.66973098     0.14200
C2433       C  0.39564562  0.67308537  0.74779685    -0.05800
C2434       C  0.40616201  0.66758788  0.72430411    -0.05700
C2435       C  0.40689406  0.68612541  0.70557855    -0.23900
C2436       C  0.39686084  0.71023849  0.71008934     0.18300
C2437       C  0.38795541  0.71622130  0.73435192     0.15600
C2438       C  0.38786882  0.69780952  0.75304542    -0.18900
C2439       C  0.37742719  0.73991339  0.73909186    -0.20700
C2440       C  0.37398685  0.75693252  0.71957024    -0.13300
C2441       C  0.38156045  0.75087710  0.69507137     0.03400
C2442       C  0.39401072  0.72789992  0.69055952    -0.25400
H2443       H  0.41207841  0.64859951  0.71985396     0.08500
H2444       H  0.41392953  0.68117577  0.68716445     0.12100
H2445       H  0.37980230  0.70217676  0.77122311     0.12000
H2446       H  0.37068969  0.74481653  0.75764335     0.11800
H2447       H  0.36472233  0.77469572  0.72348173     0.12300
H2448       H  0.39983575  0.72312065  0.67167193     0.14200
C2449       C  0.05099138  0.86464482  0.66646112    -0.05800
C2450       C  0.03920855  0.87344808  0.64449282    -0.05700
C2451       C  0.01289428  0.87502491  0.64299342    -0.23900
C2452       C  0.99799187  0.86744424  0.66330422     0.18300
C2453       C  0.00986444  0.85752982  0.68493976     0.15600
C2454       C  0.03614502  0.85636053  0.68641983    -0.18900
C2455       C  0.99532718  0.84937198  0.70507617    -0.20700
C2456       C  0.96927292  0.85181948  0.70432752    -0.13300
C2457       C  0.95704048  0.86257220  0.68345002     0.03400
C2458       C  0.97156043  0.86996069  0.66267760    -0.25400
H2459       H  0.05036961  0.87985255  0.62882673     0.08500
H2460       H  0.00424076  0.88249309  0.62613625     0.12100
H2461       H  0.04511424  0.84914871  0.70325526     0.12000
H2462       H  0.00414396  0.84144431  0.72164719     0.11800
H2463       H  0.95870689  0.84559687  0.72046854     0.12300
H2464       H  0.96242327  0.87801256  0.64633998     0.14200
C2465       C  0.12336339  0.78726071  0.62501410    -0.05800
C2466       C  0.13818264  0.78188043  0.60396010    -0.05700
C2467       C  0.14114979  0.75704595  0.59575531    -0.23900
C2468       C  0.12927043  0.73735322  0.60849871     0.18300
C2469       C  0.11194921  0.74294763  0.62778606     0.15600
C2470       C  0.10901401  0.76795172  0.63583755    -0.18900
C2471       C  0.10005386  0.72321700  0.64048943    -0.20700
C2472       C  0.10748940  0.69828799  0.63621947    -0.13300
C2473       C  0.12688180  0.69287471  0.61922972     0.03400
C2474       C  0.13649250  0.71228934  0.60424574    -0.25400
H2475       H  0.14956155  0.79642452  0.59557517     0.08500
H2476       H  0.15430015  0.75306981  0.58075434     0.12100
H2477       H  0.09764174  0.77202825  0.65222465     0.12000
H2478       H  0.08652200  0.72716841  0.65515736     0.11800
H2479       H  0.10008150  0.68363673  0.64813256     0.12300
H2480       H  0.15161012  0.70817251  0.59122284     0.14200
C2481       C  0.20605173  0.86250415  0.62827188    -0.05800
C2482       C  0.21555651  0.84727623  0.60894688    -0.05700
C2483       C  0.24119205  0.84751265  0.60318283    -0.23900
C2484       C  0.25784365  0.86204041  0.61754526     0.18300
C2485       C  0.24822589  0.87807634  0.63649788     0.15600
C2486       C  0.22226553  0.87871052  0.64123602    -0.18900
C2487       C  0.26491400  0.89125446  0.65203991    -0.20700
C2488       C  0.29075240  0.88668032  0.65047919    -0.13300
C2489       C  0.30032942  0.86971512  0.63267786     0.03400
C2490       C  0.28396494  0.85868477  0.61519626    -0.25400
H2491       H  0.20328338  0.83439425  0.59907773     0.08500
H2492       H  0.24821437  0.83497688  0.58873573     0.12100
H2493       H  0.21503253  0.88986396  0.65669804     0.12000
H2494       H  0.25789212  0.90345777  0.66676835     0.11800
H2495       H  0.30311807  0.89488513  0.66442173     0.12300
H2496       H  0.29127476  0.84495264  0.60199070     0.14200
C2497       C  0.12900054  0.65379773  0.95211402    -0.05800
C2498       C  0.14488651  0.63591059  0.96360834    -0.05700
C2499       C  0.14667703  0.63434393  0.98986658    -0.23900
C2500       C  0.13265996  0.65066754  0.00522830     0.18300
C2501       C  0.11669388  0.66866464  0.99378222     0.15600
C2502       C  0.11491067  0.67004627  0.96752205    -0.18900
C2503       C  0.10281973  0.68524560  0.00874393    -0.20700
C2504       C  0.10476608  0.68423235  0.03478432    -0.13300
C2505       C  0.12050859  0.66650927  0.04672192     0.03400
C2506       C  0.13438227  0.64954834  0.03172294    -0.25400
H2507       H  0.15610751  0.62322221  0.95229238     0.08500
H2508       H  0.15913417  0.62045540  0.99814072     0.12100
H2509       H  0.10265346  0.68404065  0.95909442     0.12000
H2510       H  0.09049911  0.69916280  0.00029444     0.11800
H2511       H  0.09372923  0.69747058  0.04565683     0.12300
H2512       H  0.14672993  0.63590654  0.04056354     0.14200
C2513       C  0.95785722  0.66469400  0.87089369    -0.05800
C2514       C  0.96867327  0.68765933  0.86403017    -0.05700
C2515       C  0.99449872  0.68963430  0.86052580    -0.23900
C2516       C  0.01016575  0.66881639  0.86453911     0.18300
C2517       C  0.99963677  0.64535125  0.87093920     0.15600
C2518       C  0.97329902  0.64326943  0.87358924    -0.18900
C2519       C  0.01580319  0.62485831  0.87556509    -0.20700
C2520       C  0.04204411  0.62797296  0.87507910    -0.13300
C2521       C  0.05253396  0.65153540  0.86952130     0.03400
C2522       C  0.03628732  0.67156485  0.86339994    -0.25400
H2523       H  0.95703955  0.70426364  0.86160643     0.08500
H2524       H  0.00231153  0.70771927  0.85553614     0.12100
H2525       H  0.96502308  0.62551303  0.87898255     0.12000
H2526       H  0.00817827  0.60666414  0.88041390     0.11800
H2527       H  0.05407971  0.61215838  0.87967879     0.12300
H2528       H  0.04393713  0.68984968  0.85886753     0.14200
C2529       C  0.13149808  0.62015193  0.70056675    -0.05800
C2530       C  0.11356640  0.63774415  0.70889522    -0.05700
C2531       C  0.10931108  0.64146557  0.73449588    -0.23900
C2532       C  0.12348355  0.62815096  0.75232061     0.18300
C2533       C  0.14063952  0.60940911  0.74420729     0.15600
C2534       C  0.14414767  0.60514195  0.71831059    -0.18900
C2535       C  0.15556259  0.59686698  0.76206569    -0.20700
C2536       C  0.15469589  0.60395815  0.78738899    -0.13300
C2537       C  0.13836055  0.62312539  0.79539936     0.03400
C2538       C  0.12221630  0.63462949  0.77790971    -0.25400
H2539       H  0.10404884  0.64985323  0.69553753     0.08500
H2540       H  0.09615732  0.65594537  0.74032342     0.12100
H2541       H  0.15859890  0.59213654  0.71205636     0.12000
H2542       H  0.16889466  0.58254552  0.75626531     0.11800
H2543       H  0.16750392  0.59516891  0.80059975     0.12300
H2544       H  0.11001916  0.64986347  0.78395612     0.14200
C2545       C  0.21475003  0.63504722  0.88014248    -0.05800
C2546       C  0.22999823  0.65258669  0.89273703    -0.05700
C2547       C  0.25607455  0.65032859  0.89246294    -0.23900
C2548       C  0.26746613  0.63035156  0.87971130     0.18300
C2549       C  0.25243474  0.61097147  0.86943642     0.15600
C2550       C  0.22593863  0.61331253  0.86990747    -0.18900
C2551       C  0.26426494  0.59089904  0.85689982    -0.20700
C2552       C  0.29029812  0.59132039  0.85255458    -0.13300
C2553       C  0.30477487  0.61179341  0.86068648     0.03400
C2554       C  0.29343018  0.63064575  0.87522161    -0.25400
H2555       H  0.22176146  0.66929370  0.90106710     0.08500
H2556       H  0.26732036  0.66511873  0.90078021     0.12100
H2557       H  0.21436362  0.59971848  0.86012012     0.12000
H2558       H  0.25320983  0.57571877  0.84907459     0.11800
H2559       H  0.29871920  0.57676329  0.84105028     0.12300
H2560       H  0.30453643  0.64658464  0.88135605     0.14200
C2561       C  0.11618210  0.73357634  0.81191926    -0.05800
C2562       C  0.10747764  0.75728376  0.81993734    -0.05700
C2563       C  0.10521420  0.77727703  0.80302088    -0.23900
C2564       C  0.11175758  0.77404393  0.77775286     0.18300
C2565       C  0.11951478  0.75000178  0.76928630     0.15600
C2566       C  0.12137594  0.72992674  0.78630053    -0.18900
C2567       C  0.12663064  0.74674916  0.74421302    -0.20700
C2568       C  0.12750162  0.76735159  0.72807006    -0.13300
C2569       C  0.12062782  0.79148120  0.73642983     0.03400
C2570       C  0.11198040  0.79462902  0.76111811    -0.25400
H2571       H  0.10337492  0.76069474  0.83952869     0.08500
H2572       H  0.09922715  0.79551785  0.80991345     0.12100
H2573       H  0.12809869  0.71178412  0.77977705     0.12000
H2574       H  0.13259658  0.72847730  0.73736596     0.11800
H2575       H  0.13435150  0.76461574  0.70913966     0.12300
H2576       H  0.10713675  0.81328818  0.76780974     0.14200
C2577       C  0.32075620  0.85828579  0.95710505    -0.05800
C2578       C  0.29741984  0.85337121  0.96827856    -0.05700
C2579       C  0.29501056  0.85258421  0.99426053    -0.23900
C2580       C  0.31581916  0.85727965  0.00966750     0.18300
C2581       C  0.33959440  0.86181700  0.99878746     0.15600
C2582       C  0.34204512  0.86188111  0.97242884    -0.18900
C2583       C  0.36017952  0.86700841  0.01451149    -0.20700
C2584       C  0.35707653  0.86823746  0.04060649    -0.13300
C2585       C  0.33338219  0.86407894  0.05148203     0.03400
C2586       C  0.31295136  0.85819657  0.03577062    -0.25400
H2587       H  0.28083630  0.85049425  0.95677576     0.08500
H2588       H  0.27668106  0.84901958  0.00229976     0.12100
H2589       H  0.36004433  0.86597194  0.96391372     0.12000
H2590       H  0.37857108  0.87054155  0.00661921     0.11800
H2591       H  0.37319716  0.87260623  0.05225871     0.12300
H2592       H  0.29456459  0.85483406  0.04379310     0.14200
C2593       C  0.18270097  0.73719105  0.89574539    -0.05800
C2594       C  0.17481114  0.75847729  0.90927193    -0.05700
C2595       C  0.19123776  0.77887448  0.91266651    -0.23900
C2596       C  0.21562946  0.77816444  0.90244673     0.18300
C2597       C  0.22405409  0.75578307  0.89072031     0.15600
C2598       C  0.20771830  0.73549770  0.88777330    -0.18900
C2599       C  0.24807515  0.75456985  0.88027306    -0.20700
C2600       C  0.26293917  0.77592894  0.87946904    -0.13300
C2601       C  0.25434687  0.79887326  0.88939874     0.03400
C2602       C  0.23109958  0.79973183  0.90202202    -0.25400
H2603       H  0.15553832  0.76006260  0.91561702     0.08500
H2604       H  0.18441318  0.79566880  0.92198012     0.12100
H2605       H  0.21394322  0.71894158  0.87756762     0.12000
H2606       H  0.25483082  0.73747027  0.87143995     0.11800
H2607       H  0.28087343  0.77482298  0.86991227     0.12300
H2608       H  0.22429510  0.81740001  0.90960030     0.14200
C2609       C  0.19863861  0.86715247  0.73461641    -0.05800
C2610       C  0.22377932  0.86406914  0.72701284    -0.05700
C2611       C  0.24343492  0.86659406  0.74425979    -0.23900
C2612       C  0.23830180  0.87212515  0.76943988     0.18300
C2613       C  0.21322596  0.87667660  0.77698099     0.15600
C2614       C  0.19359138  0.87441934  0.75948414    -0.18900
C2615       C  0.20808901  0.88212309  0.80217596    -0.20700
C2616       C  0.22738482  0.88149755  0.82001444    -0.13300
C2617       C  0.25219318  0.87555223  0.81295725     0.03400
C2618       C  0.25764220  0.87184601  0.78741338    -0.25400
H2619       H  0.22824778  0.85879820  0.70790261     0.08500
H2620       H  0.26257092  0.86327370  0.73809622     0.12100
H2621       H  0.17432391  0.87705847  0.76558244     0.12000
H2622       H  0.18899616  0.88582292  0.80826611     0.11800
H2623       H  0.22263401  0.88450594  0.83952605     0.12300
H2624       H  0.27668189  0.86733311  0.78166364     0.14200
C2625       C  0.36163610  0.78458781  0.87175201    -0.05800
C2626       C  0.38311378  0.78211278  0.85669220    -0.05700
C2627       C  0.39254203  0.75829246  0.85066707    -0.23900
C2628       C  0.38086439  0.73670043  0.86002234     0.18300
C2629       C  0.36074122  0.73921935  0.87717276     0.15600
C2630       C  0.35107220  0.76316187  0.88268946    -0.18900
C2631       C  0.34951684  0.71767107  0.88710795    -0.20700
C2632       C  0.35675433  0.69387815  0.87861946    -0.13300
C2633       C  0.37496763  0.69136703  0.85977829     0.03400
C2634       C  0.38766756  0.71273936  0.85120589    -0.25400
H2635       H  0.39139107  0.79846645  0.84803279     0.08500
H2636       H  0.40817347  0.75673459  0.83774012     0.12100
H2637       H  0.33447078  0.76506861  0.89434129     0.12000
H2638       H  0.33424785  0.71926165  0.90045278     0.11800
H2639       H  0.34658618  0.67759069  0.88518650     0.12300
H2640       H  0.40167351  0.71081513  0.83656346     0.14200
C2641       C  0.36993170  0.86438391  0.80612358    -0.05800
C2642       C  0.38708055  0.84504509  0.80056209    -0.05700
C2643       C  0.39500973  0.84088563  0.77600822    -0.23900
C2644       C  0.38560846  0.85583464  0.75651426     0.18300
C2645       C  0.37033788  0.87696022  0.76212268     0.15600
C2646       C  0.36272254  0.88127550  0.78710795    -0.18900
C2647       C  0.36091435  0.89170931  0.74232955    -0.20700
C2648       C  0.36431389  0.88404135  0.71735819    -0.13300
C2649       C  0.37720284  0.86157856  0.71192970     0.03400
C2650       C  0.38905806  0.84842865  0.73150353    -0.25400
H2651       H  0.39255151  0.83170927  0.81491483     0.08500
H2652       H  0.40687732  0.82474187  0.77203670     0.12100
H2653       H  0.34905075  0.89589982  0.79120547     0.12000
H2654       H  0.34939083  0.90811958  0.74617888     0.11800
H2655       H  0.35490708  0.89435926  0.70252913     0.12300
H2656       H  0.39901006  0.83105119  0.72738830     0.14200
C2657       C  0.37887566  0.15634116  0.55310373    -0.05800
C2658       C  0.37133414  0.13340780  0.54232054    -0.05700
C2659       C  0.37078060  0.13027912  0.51609163    -0.23900
C2660       C  0.37754429  0.15009215  0.50006173     0.18300
C2661       C  0.38486734  0.17323680  0.51081838     0.15600
C2662       C  0.38553888  0.17616560  0.53701918    -0.18900
C2663       C  0.39150895  0.19321711  0.49524148    -0.20700
C2664       C  0.39115557  0.19039252  0.46924967    -0.13300
C2665       C  0.38412707  0.16750660  0.45791009     0.03400
C2666       C  0.37716568  0.14732030  0.47358731    -0.25400
H2667       H  0.36616184  0.11778049  0.55417101     0.08500
H2668       H  0.36509563  0.11233826  0.50835583     0.12100
H2669       H  0.39122588  0.19406897  0.54489573     0.12000
H2670       H  0.39705430  0.21113246  0.50317245     0.11800
H2671       H  0.39639004  0.20642162  0.45796907     0.12300
H2672       H  0.37161098  0.12958450  0.46528673     0.14200
C2673       C  0.17591325  0.44339190  0.62673916    -0.05800
C2674       C  0.15200356  0.45363624  0.63198655    -0.05700
C2675       C  0.14796798  0.47970024  0.63189430    -0.23900
C2676       C  0.16783241  0.49618081  0.62688580     0.18300
C2677       C  0.19199736  0.48607159  0.62194548     0.15600
C2678       C  0.19582720  0.45987552  0.62167899    -0.18900
C2679       C  0.21204989  0.50233065  0.61744037    -0.20700
C2680       C  0.20836293  0.52829937  0.61800530    -0.13300
C2681       C  0.18446382  0.53880581  0.62273682     0.03400
C2682       C  0.16409422  0.52252526  0.62692550    -0.25400
H2683       H  0.13624388  0.44144688  0.63584383     0.08500
H2684       H  0.12930731  0.48695343  0.63580965     0.12100
H2685       H  0.21438536  0.45234402  0.61772470     0.12000
H2686       H  0.23069417  0.49496933  0.61362002     0.11800
H2687       H  0.22437586  0.54026604  0.61447205     0.12300
H2688       H  0.14560062  0.53029961  0.63068263     0.14200
C2689       C  0.18595492  0.36695505  0.45183152    -0.05800
C2690       C  0.21038508  0.36807915  0.46206829    -0.05700
C2691       C  0.21424782  0.36811638  0.48798892    -0.23900
C2692       C  0.19375238  0.36735208  0.50438814     0.18300
C2693       C  0.16905996  0.36640810  0.49448881     0.15600
C2694       C  0.16530027  0.36592893  0.46826356    -0.18900
C2695       C  0.14859909  0.36614084  0.51104396    -0.20700
C2696       C  0.15253059  0.36684000  0.53704620    -0.13300
C2697       C  0.17701511  0.36748103  0.54710450     0.03400
C2698       C  0.19757345  0.36765241  0.53051393    -0.25400
H2699       H  0.22668249  0.36868559  0.44995939     0.08500
H2700       H  0.23331422  0.36886212  0.49520438     0.12100
H2701       H  0.14637363  0.36515576  0.46068712     0.12000
H2702       H  0.12951557  0.36548743  0.50388398     0.11800
H2703       H  0.13635727  0.36661050  0.54932453     0.12300
H2704       H  0.21658439  0.36830785  0.53790879     0.14200
C2705       C  0.32411009  0.24100288  0.61167948    -0.05800
C2706       C  0.33220330  0.26483703  0.60410860    -0.05700
C2707       C  0.31473715  0.28434365  0.60075995    -0.23900
C2708       C  0.28902642  0.28011078  0.60487185     0.18300
C2709       C  0.28077730  0.25557871  0.61073787     0.15600
C2710       C  0.29838225  0.23624914  0.61420705    -0.18900
C2711       C  0.25520198  0.25108077  0.61457764    -0.20700
C2712       C  0.23813244  0.27101094  0.61464003    -0.13300
C2713       C  0.24633072  0.29586504  0.61102309     0.03400
C2714       C  0.27167001  0.30015084  0.60490192    -0.25400
H2715       H  0.35209136  0.26873125  0.60233467     0.08500
H2716       H  0.32143225  0.30295294  0.59609947     0.12100
H2717       H  0.29221737  0.21778954  0.62015208     0.12000
H2718       H  0.24855396  0.23231841  0.61872192     0.11800
H2719       H  0.21866962  0.26705939  0.61900686     0.12300
H2720       H  0.27821590  0.31917394  0.60193962     0.14200
C2721       C  0.36791090  0.43880706  0.82306445    -0.05800
C2722       C  0.35450862  0.44876481  0.80246459    -0.05700
C2723       C  0.35340964  0.47463397  0.79816240    -0.23900
C2724       C  0.36579477  0.49129736  0.81427949     0.18300
C2725       C  0.37843269  0.48173562  0.83567470     0.15600
C2726       C  0.37928301  0.45556789  0.84006227    -0.18900
C2727       C  0.39064032  0.49849340  0.85187474    -0.20700
C2728       C  0.39097156  0.52423277  0.84658402    -0.13300
C2729       C  0.37917940  0.53392703  0.82491284     0.03400
C2730       C  0.36623704  0.51725799  0.80901820    -0.25400
H2731       H  0.34525700  0.43642735  0.78918973     0.08500
H2732       H  0.34337688  0.48154655  0.78182780     0.12100
H2733       H  0.38964837  0.44825907  0.85602239     0.12000
H2734       H  0.40031169  0.49165988  0.86845282     0.11800
H2735       H  0.40092824  0.53654126  0.85935832     0.12300
H2736       H  0.35679433  0.52439945  0.79242724     0.14200
C2737       C  0.30989275  0.36011588  0.76328269    -0.05800
C2738       C  0.28536977  0.35230184  0.76913831    -0.05700
C2739       C  0.26609076  0.35402823  0.75150762    -0.23900
C2740       C  0.27085048  0.36380295  0.72768064     0.18300
C2741       C  0.29501421  0.37298862  0.72180955     0.15600
C2742       C  0.31449294  0.37105847  0.73969315    -0.18900
C2743       C  0.29936212  0.38306533  0.69784617    -0.20700
C2744       C  0.28028969  0.38280912  0.67956948    -0.13300
C2745       C  0.25678492  0.37236108  0.68506017     0.03400
C2746       C  0.25201412  0.36352463  0.70932625    -0.25400
H2747       H  0.28114503  0.34406714  0.78719502     0.08500
H2748       H  0.24758978  0.34713374  0.75631722     0.12100
H2749       H  0.33323396  0.37738661  0.73502483     0.12000
H2750       H  0.31769655  0.39033134  0.69299641     0.11800
H2751       H  0.28432381  0.38943239  0.66082367     0.12300
H2752       H  0.23383350  0.35544577  0.71358686     0.14200
C2753       C  0.39734841  0.29376378  0.76798217    -0.05800
C2754       C  0.39406987  0.26905579  0.77644843    -0.05700
C2755       C  0.39560666  0.24890760  0.75980511    -0.23900
C2756       C  0.39973270  0.25328797  0.73428130     0.18300
C2757       C  0.40492751  0.27792471  0.72585693     0.15600
C2758       C  0.40421115  0.29808329  0.74296959    -0.18900
C2759       C  0.40852211  0.28217916  0.70016824    -0.20700
C2760       C  0.40482508  0.26270749  0.68287068    -0.13300
C2761       C  0.39772804  0.23864064  0.69103517     0.03400
C2762       C  0.39659171  0.23379416  0.71688295    -0.25400
H2763       H  0.38865224  0.26552254  0.79569368     0.08500
H2764       H  0.39175928  0.23013235  0.76658443     0.12100
H2765       H  0.40631757  0.31720808  0.73634353     0.12000
H2766       H  0.41274207  0.30084867  0.69334063     0.11800
H2767       H  0.40614815  0.26686498  0.66304934     0.12300
H2768       H  0.39150307  0.21523113  0.72345250     0.14200
C2769       C  0.12498055  0.31681043  0.95652599    -0.05800
C2770       C  0.11567417  0.33898389  0.96759563    -0.05700
C2771       C  0.11609717  0.34208595  0.99379751    -0.23900
C2772       C  0.12580111  0.32305675  0.00941063     0.18300
C2773       C  0.13601485  0.30116656  0.99827707     0.15600
C2774       C  0.13564838  0.29826904  0.97214282    -0.18900
C2775       C  0.14584368  0.28206466  0.01343961    -0.20700
C2776       C  0.14461903  0.28401997  0.03945164    -0.13300
C2777       C  0.13360728  0.30515794  0.05107742     0.03400
C2778       C  0.12480837  0.32504621  0.03585956    -0.25400
H2779       H  0.10753069  0.35365872  0.95606088     0.08500
H2780       H  0.10832776  0.35912455  0.00186661     0.12100
H2781       H  0.14323802  0.28115405  0.96400913     0.12000
H2782       H  0.15394412  0.26525766  0.00517657     0.11800
H2783       H  0.15189637  0.26854446  0.05052101     0.12300
H2784       H  0.11635284  0.34148394  0.04448352     0.14200
C2785       C  0.29505642  0.36078018  0.86288698    -0.05800
C2786       C  0.28197436  0.37452984  0.84453897    -0.05700
C2787       C  0.25567799  0.37477977  0.84406312    -0.23900
C2788       C  0.24204115  0.36157642  0.86219814     0.18300
C2789       C  0.25506644  0.34925058  0.88188141     0.15600
C2790       C  0.28155293  0.34858166  0.88186066    -0.18900
C2791       C  0.24133921  0.33656891  0.90034248    -0.20700
C2792       C  0.21514747  0.33466880  0.89841431    -0.13300
C2793       C  0.20233818  0.34507815  0.87782628     0.03400
C2794       C  0.21578406  0.35912416  0.86012715    -0.25400
H2795       H  0.29212509  0.38364618  0.82953499     0.08500
H2796       H  0.24603736  0.38443746  0.82891768     0.12100
H2797       H  0.29162632  0.33767295  0.89585814     0.12000
H2798       H  0.25094924  0.32716217  0.91566132     0.11800
H2799       H  0.20511607  0.32339167  0.91195221     0.12300
H2800       H  0.20596714  0.36693448  0.84403951     0.14200
C2801       C  0.12432803  0.33771160  0.79496995    -0.05800
C2802       C  0.10869181  0.32468971  0.77813329    -0.05700
C2803       C  0.10916368  0.32996345  0.75243379    -0.23900
C2804       C  0.12597549  0.34776554  0.74294086     0.18300
C2805       C  0.14091986  0.36185669  0.75988748     0.15600
C2806       C  0.13956709  0.35713689  0.78586683    -0.18900
C2807       C  0.15853162  0.37884765  0.75041251    -0.20700
C2808       C  0.16282321  0.38028118  0.72460480    -0.13300
C2809       C  0.14910195  0.36536246  0.70765820     0.03400
C2810       C  0.12976515  0.35005047  0.71685348    -0.25400
H2811       H  0.09693679  0.30954995  0.78478592     0.08500
H2812       H  0.09754530  0.31896436  0.73983476     0.12100
H2813       H  0.15208905  0.36687449  0.79866875     0.12000
H2814       H  0.17020893  0.38977074  0.76302450     0.11800
H2815       H  0.17805161  0.39191443  0.71791844     0.12300
H2816       H  0.11958773  0.33796677  0.70398248     0.14200
C2817       C  0.33782560  0.11731759  0.05413322    -0.05800
C2818       C  0.35841970  0.12939480  0.04284526    -0.05700
C2819       C  0.36068238  0.13044579  0.01660497    -0.23900
C2820       C  0.34244415  0.11934913  0.00104522     0.18300
C2821       C  0.32172929  0.10725776  0.01228837     0.15600
C2822       C  0.31951394  0.10640289  0.03852985    -0.18900
C2823       C  0.30343328  0.09606076  0.99715186    -0.20700
C2824       C  0.30543671  0.09682333  0.97113176    -0.13300
C2825       C  0.32576708  0.10884691  0.95934091     0.03400
C2826       C  0.34439764  0.12010087  0.97455249    -0.25400
H2827       H  0.37282324  0.13807418  0.05431047     0.08500
H2828       H  0.37672068  0.13987453  0.00850829     0.12100
H2829       H  0.30351985  0.09701255  0.04679121     0.12000
H2830       H  0.28745355  0.08668956  0.00544722     0.11800
H2831       H  0.29074717  0.08795007  0.96019395     0.12300
H2832       H  0.36013565  0.12953255  0.96588295     0.14200
C2833       C  0.31743364  0.03689073  0.87492842    -0.05800
C2834       C  0.29591454  0.02637995  0.86363410    -0.05700
C2835       C  0.29269660  0.00044480  0.86244719    -0.23900
C2836       C  0.31091542  0.98431004  0.87250208     0.18300
C2837       C  0.33304064  0.99442764  0.88324380     0.15600
C2838       C  0.33623719  0.02069685  0.88432946    -0.18900
C2839       C  0.35127789  0.97805243  0.89311595    -0.20700
C2840       C  0.34739693  0.95204922  0.89275585    -0.13300
C2841       C  0.32516921  0.94187998  0.88256980     0.03400
C2842       C  0.30712263  0.95823370  0.87225495    -0.25400
H2843       H  0.28117571  0.03826238  0.85601523     0.08500
H2844       H  0.27571550  0.99302038  0.85398477     0.12100
H2845       H  0.35294527  0.02846873  0.89302238     0.12000
H2846       H  0.36842418  0.98534914  0.90134339     0.11800
H2847       H  0.36172527  0.93990626  0.90072978     0.12300
H2848       H  0.29000385  0.95070742  0.86414907     0.14200
C2849       C  0.18863249  0.24098581  0.89903436    -0.05800
C2850       C  0.18097695  0.21827339  0.91007095    -0.05700
C2851       C  0.19831312  0.19896873  0.91447529    -0.23900
C2852       C  0.22351877  0.20199450  0.90766466     0.18300
C2853       C  0.23171785  0.22556484  0.89858631     0.15600
C2854       C  0.21430687  0.24502902  0.89474246    -0.18900
C2855       C  0.25677455  0.22861321  0.89135705    -0.20700
C2856       C  0.27281023  0.20788016  0.89053889    -0.13300
C2857       C  0.26420722  0.18399338  0.89747904     0.03400
C2858       C  0.24007777  0.18133612  0.90756057    -0.25400
H2859       H  0.16132241  0.21483047  0.91398465     0.08500
H2860       H  0.19171199  0.18118738  0.92172927     0.12100
H2861       H  0.22049220  0.26256631  0.88654615     0.12000
H2862       H  0.26344782  0.24656764  0.88460276     0.11800
H2863       H  0.29151126  0.21014679  0.88285855     0.12300
H2864       H  0.23338317  0.16283654  0.91268359     0.14200
C2865       C  0.37840577  0.28494277  0.87919083    -0.05800
C2866       C  0.36164809  0.28024480  0.89888702    -0.05700
C2867       C  0.35739672  0.25556517  0.90693762    -0.23900
C2868       C  0.36988458  0.23528418  0.89540326     0.18300
C2869       C  0.38876814  0.24008924  0.87750951     0.15600
C2870       C  0.39300383  0.26491747  0.86964699    -0.18900
C2871       C  0.40125305  0.21982263  0.86595456    -0.20700
C2872       C  0.39328883  0.19511482  0.87006909    -0.13300
C2873       C  0.37273293  0.19037584  0.88574883     0.03400
C2874       C  0.36208883  0.21041222  0.89950255    -0.25400
H2875       H  0.35000157  0.29527188  0.90627239     0.08500
H2876       H  0.34299660  0.25221258  0.92085574     0.12100
H2877       H  0.40587134  0.26838437  0.85430442     0.12000
H2878       H  0.41590952  0.22318471  0.85230758     0.11800
H2879       H  0.40146706  0.18006428  0.85902613     0.12300
H2880       H  0.34602334  0.20688949  0.91145968     0.14200
C2881       C  0.36384143  0.11260068  0.80344157    -0.05800
C2882       C  0.34755799  0.09729246  0.78942430    -0.05700
C2883       C  0.34818400  0.09751809  0.76315400    -0.23900
C2884       C  0.36533093  0.11286664  0.75044362     0.18300
C2885       C  0.38325687  0.12666401  0.76440737     0.15600
C2886       C  0.38219600  0.12667320  0.79082966    -0.18900
C2887       C  0.40073792  0.14161616  0.75167597    -0.20700
C2888       C  0.39933469  0.14431942  0.72557246    -0.13300
C2889       C  0.38031883  0.13232780  0.71178260     0.03400
C2890       C  0.36378192  0.11603250  0.72422891    -0.25400
H2891       H  0.33294984  0.08674904  0.79875464     0.08500
H2892       H  0.33440330  0.08667812  0.75280040     0.12100
H2893       H  0.39456520  0.13881871  0.80153241     0.12000
H2894       H  0.41473896  0.15218112  0.76201784     0.11800
H2895       H  0.41197428  0.15723504  0.71636228     0.12300
H2896       H  0.34888853  0.10694426  0.71369306     0.14200
C2897       C  0.12612410  0.03704502  0.67250221    -0.05800
C2898       C  0.11896144  0.02676663  0.64921243    -0.05700
C2899       C  0.11846362  0.00058701  0.64548703    -0.23900
C2900       C  0.12511748  0.98401756  0.66496211     0.18300
C2901       C  0.13252451  0.99415737  0.68834617     0.15600
C2902       C  0.13300920  0.02039268  0.69193786    -0.18900
C2903       C  0.13912158  0.97789876  0.70793764    -0.20700
C2904       C  0.13817798  0.95186857  0.70461057    -0.13300
C2905       C  0.13066094  0.94120587  0.68156976     0.03400
C2906       C  0.12429613  0.95758021  0.66164684    -0.25400
H2907       H  0.11341541  0.03897213  0.63392158     0.08500
H2908       H  0.11267477  0.99330013  0.62739123     0.12100
H2909       H  0.13855610  0.02781839  0.71007048     0.12000
H2910       H  0.14488341  0.98532269  0.72599795     0.11800
H2911       H  0.14330516  0.94002040  0.72032209     0.12300
H2912       H  0.11839957  0.94982563  0.64377434     0.14200
C2913       C  0.12228023  0.19928148  0.65161252    -0.05800
C2914       C  0.10692062  0.21522966  0.66604674    -0.05700
C2915       C  0.10619474  0.24098538  0.66158040    -0.23900
C2916       C  0.12116243  0.25138485  0.64280952     0.18300
C2917       C  0.13514267  0.23542854  0.62670164     0.15600
C2918       C  0.13535530  0.20924069  0.63100120    -0.18900
C2919       C  0.15034592  0.24623255  0.60813995    -0.20700
C2920       C  0.15346718  0.27238873  0.60722147    -0.13300
C2921       C  0.14126462  0.28799867  0.62468037     0.03400
C2922       C  0.12419462  0.27750059  0.64155030    -0.25400
H2923       H  0.09658177  0.20788992  0.68188294     0.08500
H2924       H  0.09520710  0.25293488  0.67390647     0.12100
H2925       H  0.14745007  0.19709668  0.61994348     0.12000
H2926       H  0.16115045  0.23443436  0.59552091     0.11800
H2927       H  0.16707775  0.28020311  0.59437230     0.12300
H2928       H  0.11507457  0.28952975  0.65527058     0.14200
C2929       C  0.20308219  0.12761960  0.64189020    -0.05800
C2930       C  0.20836288  0.14968762  0.62860983    -0.05700
C2931       C  0.23295719  0.15567046  0.62219401    -0.23900
C2932       C  0.25278741  0.13982340  0.62933771     0.18300
C2933       C  0.24767151  0.11665571  0.64120630     0.15600
C2934       C  0.22262508  0.11050703  0.64723228    -0.18900
C2935       C  0.26787163  0.10112436  0.64851113    -0.20700
C2936       C  0.29275800  0.10934996  0.64577282    -0.13300
C2937       C  0.29772646  0.13317838  0.63567865     0.03400
C2938       C  0.27765837  0.14776674  0.62649087    -0.25400
H2939       H  0.19353115  0.16319572  0.62470609     0.08500
H2940       H  0.23659544  0.17345248  0.61305450     0.12100
H2941       H  0.21867040  0.09374364  0.65800947     0.12000
H2942       H  0.26441239  0.08324053  0.65749924     0.11800
H2943       H  0.30796581  0.09781631  0.65301107     0.12300
H2944       H  0.28133625  0.16611157  0.61850065     0.14200
C2945       C  0.11276724  0.22596316  0.83051323    -0.05800
C2946       C  0.12663250  0.20428704  0.83638208    -0.05700
C2947       C  0.12568274  0.18332429  0.82081342    -0.23900
C2948       C  0.11134741  0.18406439  0.79877890     0.18300
C2949       C  0.09627130  0.20538236  0.79326853     0.15600
C2950       C  0.09678899  0.22623101  0.80951652    -0.18900
C2951       C  0.08263783  0.20615036  0.77064555    -0.20700
C2952       C  0.08556956  0.18692693  0.75286150    -0.13300
C2953       C  0.10177389  0.16665601  0.75781921     0.03400
C2954       C  0.11366313  0.16475381  0.78117466    -0.25400
H2955       H  0.13914068  0.20405120  0.85248108     0.08500
H2956       H  0.13731394  0.16712760  0.82522766     0.12100
H2957       H  0.08646566  0.24322101  0.80483279     0.12000
H2958       H  0.07102180  0.22229909  0.76606027     0.11800
H2959       H  0.07669026  0.18877940  0.73463851     0.12300
H2960       H  0.12649964  0.14921892  0.78472036     0.14200
C2961       C  0.18406548  0.10473699  0.75581344    -0.05800
C2962       C  0.17583126  0.09959901  0.78031020    -0.05700
C2963       C  0.19287649  0.09977249  0.80043209    -0.23900
C2964       C  0.21835553  0.10527094  0.79636553     0.18300
C2965       C  0.22682187  0.10953509  0.77165947     0.15600
C2966       C  0.20976781  0.10896924  0.75165481    -0.18900
C2967       C  0.25208347  0.11526829  0.76733212    -0.20700
C2968       C  0.26879540  0.11753380  0.78734683    -0.13300
C2969       C  0.26061002  0.11410622  0.81213348     0.03400
C2970       C  0.23537318  0.10743650  0.81651044    -0.25400
H2971       H  0.15608352  0.09652488  0.78406994     0.08500
H2972       H  0.18599468  0.09642409  0.81922983     0.12100
H2973       H  0.21641794  0.11298373  0.73288631     0.12000
H2974       H  0.25882358  0.11856662  0.74846850     0.11800
H2975       H  0.28809673  0.12253613  0.78338530     0.12300
H2976       H  0.22880332  0.10472071  0.83553153     0.14200
C2977       C  0.55214224  0.16914603  0.62050701    -0.05800
C2978       C  0.54123377  0.19252737  0.61454408    -0.05700
C2979       C  0.51534744  0.19606029  0.61582714    -0.23900
C2980       C  0.49978852  0.17619195  0.62277501     0.18300
C2981       C  0.51035052  0.15242899  0.62850430     0.15600
C2982       C  0.53657758  0.14910885  0.62761139    -0.18900
C2983       C  0.49441944  0.13247266  0.63481594    -0.20700
C2984       C  0.46830822  0.13602777  0.63519219    -0.13300
C2985       C  0.45786995  0.15971474  0.62979890     0.03400
C2986       C  0.47377505  0.17973258  0.62380972    -0.25400
H2987       H  0.55279049  0.20833841  0.60924325     0.08500
H2988       H  0.50749210  0.21435006  0.61131541     0.12100
H2989       H  0.54480179  0.13099538  0.63219022     0.12000
H2990       H  0.50212248  0.11410203  0.63921710     0.11800
H2991       H  0.45628973  0.12037773  0.63990506     0.12300
H2992       H  0.46583763  0.19801396  0.61932798     0.14200
C2993       C  0.63456920  0.16048310  0.54732728    -0.05800
C2994       C  0.62794173  0.13783226  0.53540140    -0.05700
C2995       C  0.62705923  0.13620239  0.50915045    -0.23900
C2996       C  0.63243353  0.15730042  0.49435122     0.18300
C2997       C  0.63955911  0.17995287  0.50623800     0.15600
C2998       C  0.64084773  0.18130224  0.53247420    -0.18900
C2999       C  0.64468278  0.20119205  0.49175621    -0.20700
C3000       C  0.64230059  0.20027212  0.46573959    -0.13300
C3001       C  0.63487202  0.17804554  0.45349293     0.03400
C3002       C  0.63029689  0.15640757  0.46798607    -0.25400
H3003       H  0.62307875  0.12147382  0.54637565     0.08500
H3004       H  0.62164113  0.11861223  0.50045427     0.12100
H3005       H  0.64590274  0.19893762  0.54133274     0.12000
H3006       H  0.65019946  0.21869122  0.50058676     0.11800
H3007       H  0.64616561  0.21717653  0.45519219     0.12300
H3008       H  0.62464814  0.13910113  0.45886145     0.14200
C3009       C  0.81562552  0.44944449  0.61491891    -0.05800
C3010       C  0.79547266  0.46172763  0.60275681    -0.05700
C3011       C  0.79399703  0.48790162  0.60190834    -0.23900
C3012       C  0.81265881  0.50259539  0.61315524     0.18300
C3013       C  0.83307972  0.49073562  0.62548536     0.15600
C3014       C  0.83442950  0.46420426  0.62638285    -0.18900
C3015       C  0.85172621  0.50569860  0.63663931    -0.20700
C3016       C  0.85008817  0.53201853  0.63563337    -0.13300
C3017       C  0.82974251  0.54399218  0.62349236     0.03400
C3018       C  0.81111190  0.52897193  0.61225843    -0.25400
H3019       H  0.78062650  0.45106895  0.59382738     0.08500
H3020       H  0.77819180  0.49666221  0.59239542     0.12100
H3021       H  0.85008121  0.45512450  0.63584887     0.12000
H3022       H  0.86756822  0.49705809  0.64618703     0.11800
H3023       H  0.86471396  0.54300945  0.64452101     0.12300
H3024       H  0.79528784  0.53778440  0.60281330     0.14200
C3025       C  0.82872595  0.37029134  0.54068021    -0.05800
C3026       C  0.85028342  0.38230555  0.53132672    -0.05700
C3027       C  0.85467265  0.38377291  0.50540758    -0.23900
C3028       C  0.83762450  0.37320759  0.48823225     0.18300
C3029       C  0.81616330  0.36073291  0.49751785     0.15600
C3030       C  0.81188403  0.35933947  0.52348845    -0.18900
C3031       C  0.79900519  0.35012708  0.48068373    -0.20700
C3032       C  0.80266803  0.35225457  0.45490697    -0.13300
C3033       C  0.82362388  0.36499577  0.44511318     0.03400
C3034       C  0.84133901  0.37519245  0.46201825    -0.25400
H3035       H  0.86356258  0.39102246  0.54404659     0.08500
H3036       H  0.87125613  0.39343501  0.49880316     0.12100
H3037       H  0.79518630  0.34997145  0.53027930     0.12000
H3038       H  0.78251090  0.34040484  0.48744624     0.11800
H3039       H  0.78876962  0.34398364  0.44254191     0.12300
H3040       H  0.85753652  0.38511697  0.45485897     0.14200
C3041       C  0.75716297  0.29888744  0.60481915    -0.05800
C3042       C  0.73465470  0.30330659  0.59161352    -0.05700
C3043       C  0.71597586  0.28502949  0.59075112    -0.23900
C3044       C  0.71939018  0.26222875  0.60340663     0.18300
C3045       C  0.74276177  0.25674812  0.61491217     0.15600
C3046       C  0.76172654  0.27494377  0.61508660    -0.18900
C3047       C  0.74603971  0.23398162  0.62773585    -0.20700
C3048       C  0.72569992  0.21781360  0.63097206    -0.13300
C3049       C  0.70188790  0.22408068  0.62118483     0.03400
C3050       C  0.69924789  0.24568849  0.60629100    -0.25400
H3051       H  0.73083571  0.32145063  0.58322317     0.08500
H3052       H  0.69827569  0.28935835  0.58154214     0.12100
H3053       H  0.77911572  0.27119234  0.62512204     0.12000
H3054       H  0.76393653  0.22930960  0.63638111     0.11800
H3055       H  0.72837101  0.20095524  0.64203324     0.12300
H3056       H  0.68110343  0.25050535  0.59823257     0.14200
C3057       C  0.62660438  0.44546167  0.82800365    -0.05800
C3058       C  0.61298024  0.45589179  0.84815105    -0.05700
C3059       C  0.61273816  0.48188109  0.85247936    -0.23900
C3060       C  0.62625595  0.49807888  0.83686081     0.18300
C3061       C  0.64065640  0.48771962  0.81705426     0.15600
C3062       C  0.64069118  0.46159909  0.81271122    -0.18900
C3063       C  0.65438867  0.50371527  0.80153369    -0.20700
C3064       C  0.65302784  0.52971421  0.80481435    -0.13300
C3065       C  0.63795800  0.54049086  0.82374422     0.03400
C3066       C  0.62509393  0.52442630  0.84021365    -0.25400
H3067       H  0.60200191  0.44397153  0.86032258     0.08500
H3068       H  0.60165814  0.48933214  0.86783343     0.12100
H3069       H  0.65149855  0.45387778  0.79727648     0.12000
H3070       H  0.66575800  0.49615653  0.78643559     0.11800
H3071       H  0.66344739  0.54149744  0.79202450     0.12300
H3072       H  0.61343625  0.53238253  0.85488744     0.14200
C3073       C  0.54701171  0.37249223  0.82253143    -0.05800
C3074       C  0.53441741  0.38561363  0.80327150    -0.05700
C3075       C  0.50833143  0.38771222  0.80297670    -0.23900
C3076       C  0.49404799  0.37671099  0.82190575     0.18300
C3077       C  0.50620286  0.36386739  0.84176150     0.15600
C3078       C  0.53271475  0.36182464  0.84200294    -0.18900
C3079       C  0.49149879  0.35303738  0.86068677    -0.20700
C3080       C  0.46512845  0.35425779  0.85943941    -0.13300
C3081       C  0.45297072  0.36637898  0.83926911     0.03400
C3082       C  0.46773235  0.37796476  0.82085896    -0.25400
H3083       H  0.54473734  0.39421384  0.78809748     0.08500
H3084       H  0.49929693  0.39772355  0.78769407     0.12100
H3085       H  0.54210214  0.35184230  0.85709226     0.12000
H3086       H  0.50035828  0.34323740  0.87619443     0.11800
H3087       H  0.45425938  0.34522344  0.87396233     0.12300
H3088       H  0.45874462  0.38756763  0.80528194     0.14200
C3089       C  0.61253234  0.24299367  0.67928622    -0.05800
C3090       C  0.60957714  0.26673063  0.66811901    -0.05700
C3091       C  0.60719751  0.28841142  0.68299113    -0.23900
C3092       C  0.60745972  0.28666088  0.70928601     0.18300
C3093       C  0.60846757  0.26258835  0.72053301     0.15600
C3094       C  0.61111500  0.24099496  0.70549223    -0.18900
C3095       C  0.60857853  0.26059146  0.74671465    -0.20700
C3096       C  0.60986395  0.28214368  0.76162160    -0.13300
C3097       C  0.61062804  0.30613393  0.75075210     0.03400
C3098       C  0.60846436  0.30840978  0.72453686    -0.25400
H3099       H  0.61074870  0.26866827  0.64794294     0.08500
H3100       H  0.60626543  0.30661193  0.67394183     0.12100
H3101       H  0.61332017  0.22270645  0.71420751     0.12000
H3102       H  0.60911643  0.24232107  0.75566244     0.11800
H3103       H  0.61179870  0.28003440  0.78173160     0.12300
H3104       H  0.60952920  0.32684940  0.71600088     0.14200
C3105       C  0.69373414  0.37789515  0.75486605    -0.05800
C3106       C  0.71897462  0.37281738  0.76107363    -0.05700
C3107       C  0.73769857  0.37407819  0.74284306    -0.23900
C3108       C  0.73149382  0.38031268  0.71805409     0.18300
C3109       C  0.70659111  0.38744241  0.71194638     0.15600
C3110       C  0.68787566  0.38641509  0.73048705    -0.18900
C3111       C  0.70060253  0.39385963  0.68703847    -0.20700
C3112       C  0.71869493  0.39145159  0.66808526    -0.13300
C3113       C  0.74287781  0.38255657  0.67388489     0.03400
C3114       C  0.74940627  0.37791770  0.69900021    -0.25400
H3115       H  0.72410642  0.36665258  0.77975604     0.08500
H3116       H  0.75682604  0.36897861  0.74786710     0.12100
H3117       H  0.66854234  0.39066987  0.72547654     0.12000
H3118       H  0.68165072  0.39956689  0.68203522     0.11800
H3119       H  0.71337842  0.39498927  0.64878443     0.12300
H3120       H  0.76811967  0.37104019  0.70349701     0.14200
C3121       C  0.04782013  0.11865184  0.67030984    -0.05800
C3122       C  0.03788397  0.13944374  0.65722086    -0.05700
C3123       C  0.01177942  0.14316836  0.65541398    -0.23900
C3124       C  0.99517255  0.12605673  0.66649221     0.18300
C3125       C  0.00522634  0.10501455  0.67937141     0.15600
C3126       C  0.03125841  0.10154729  0.68126328    -0.18900
C3127       C  0.98914809  0.08769577  0.69041733    -0.20700
C3128       C  0.96331343  0.09121728  0.68915313    -0.13300
C3129       C  0.95272743  0.11223342  0.67689739     0.03400
C3130       C  0.96881727  0.12957441  0.66525478    -0.25400
H3131       H  0.05030560  0.15307870  0.64880135     0.08500
H3132       H  0.00461200  0.15947278  0.64550059     0.12100
H3133       H  0.03864177  0.08543674  0.69138272     0.12000
H3134       H  0.99655855  0.07142489  0.70023809     0.11800
H3135       H  0.95154301  0.07733509  0.69809087     0.12300
H3136       H  0.96095956  0.14586404  0.65582631     0.14200
C3137       C  0.87805864  0.94641044  0.68247762    -0.05800
C3138       C  0.87397298  0.95723788  0.70617262    -0.05700
C3139       C  0.87135319  0.98313284  0.70893929    -0.23900
C3140       C  0.87328086  0.99894075  0.68811805     0.18300
C3141       C  0.87756485  0.98855985  0.66407619     0.15600
C3142       C  0.87952488  0.96216879  0.66128379    -0.18900
C3143       C  0.88018705  0.00488037  0.64352760    -0.20700
C3144       C  0.87888133  0.03108946  0.64690269    -0.13300
C3145       C  0.87450622  0.04144217  0.67081576     0.03400
C3146       C  0.87145286  0.02503529  0.69122249    -0.25400
H3147       H  0.87254037  0.94552767  0.72269920     0.08500
H3148       H  0.86811343  0.99082887  0.72749377     0.12100
H3149       H  0.88283230  0.95400881  0.64294088     0.12000
H3150       H  0.88360883  0.99740440  0.62492833     0.11800
H3151       H  0.88140463  0.04323813  0.63085420     0.12300
H3152       H  0.86830882  0.03257499  0.70986557     0.14200
C3153       C  0.70332850  0.12018481  0.63485936    -0.05800
C3154       C  0.71115956  0.10280118  0.65305332    -0.05700
C3155       C  0.73666819  0.09721101  0.65628560    -0.23900
C3156       C  0.75480336  0.10970222  0.64198150     0.18300
C3157       C  0.74703067  0.12627060  0.62268734     0.15600
C3158       C  0.72121636  0.13097737  0.61887064    -0.18900
C3159       C  0.76522818  0.13965621  0.60922258    -0.20700
C3160       C  0.79061043  0.13827467  0.61624051    -0.13300
C3161       C  0.79822103  0.12288985  0.63621888     0.03400
C3162       C  0.78042078  0.10779188  0.64829231    -0.25400
H3163       H  0.69759860  0.09466905  0.66576439     0.08500
H3164       H  0.74228062  0.08451846  0.67117222     0.12100
H3165       H  0.71524939  0.14496848  0.60531054     0.12000
H3166       H  0.75965061  0.15251671  0.59447142     0.11800
H3167       H  0.80406639  0.15042606  0.60714572     0.12300
H3168       H  0.78620335  0.09645195  0.66420075     0.14200
C3169       C  0.87715589  0.20461861  0.65338242    -0.05800
C3170       C  0.88877432  0.22010398  0.67136307    -0.05700
C3171       C  0.88883350  0.24616747  0.66879060    -0.23900
C3172       C  0.87754894  0.25746008  0.64790956     0.18300
C3173       C  0.86803485  0.24219044  0.62831113     0.15600
C3174       C  0.86791102  0.21567364  0.63112633    -0.18900
C3175       C  0.85721302  0.25391598  0.60722422    -0.20700
C3176       C  0.85406461  0.28017835  0.60654641    -0.13300
C3177       C  0.86152685  0.29514722  0.62698780     0.03400
C3178       C  0.87408691  0.28368245  0.64719121    -0.25400
H3179       H  0.89664322  0.21200837  0.68825897     0.08500
H3180       H  0.89664491  0.25753758  0.68377982     0.12100
H3181       H  0.85885554  0.20399286  0.61711097     0.12000
H3182       H  0.84996019  0.24270466  0.59185526     0.11800
H3183       H  0.84395548  0.28855815  0.59097731     0.12300
H3184       H  0.87966975  0.29505657  0.66316173     0.14200
C3185       C  0.68000188  0.12923183  0.95158183    -0.05800
C3186       C  0.69951683  0.14277813  0.96316252    -0.05700
C3187       C  0.70103932  0.14459384  0.98922113    -0.23900
C3188       C  0.68320247  0.13272440  0.00431579     0.18300
C3189       C  0.66286798  0.11990655  0.99304981     0.15600
C3190       C  0.66125002  0.11842338  0.96671006    -0.18900
C3191       C  0.64512020  0.10800937  0.00837779    -0.20700
C3192       C  0.64820935  0.10777296  0.03449867    -0.13300
C3193       C  0.66902294  0.11955534  0.04575171     0.03400
C3194       C  0.68600148  0.13265728  0.03046844    -0.25400
H3195       H  0.71404873  0.15153962  0.95206425     0.08500
H3196       H  0.71663881  0.15466411  0.99758156     0.12100
H3197       H  0.64602414  0.10800761  0.95808510     0.12000
H3198       H  0.62927812  0.09823501  0.00013430     0.11800
H3199       H  0.63473225  0.09771336  0.04581301     0.12300
H3200       H  0.70200740  0.14208681  0.03883552     0.14200
C3201       C  0.67251378  0.94515429  0.87516565    -0.05800
C3202       C  0.65081139  0.95590969  0.86426615    -0.05700
C3203       C  0.64767184  0.98207174  0.86303988    -0.23900
C3204       C  0.66609422  0.99819108  0.87280877     0.18300
C3205       C  0.68809951  0.98765320  0.88353296     0.15600
C3206       C  0.69123925  0.96133665  0.88451957    -0.18900
C3207       C  0.70654970  0.00361767  0.89334158    -0.20700
C3208       C  0.70323421  0.02969023  0.89275826    -0.13300
C3209       C  0.68141599  0.04062997  0.88226745     0.03400
C3210       C  0.66288439  0.02459549  0.87216741    -0.25400
H3211       H  0.63610803  0.94406101  0.85671880     0.08500
H3212       H  0.63069975  0.98968616  0.85462358     0.12100
H3213       H  0.70812539  0.95348812  0.89291580     0.12000
H3214       H  0.72358163  0.99593523  0.90158255     0.11800
H3215       H  0.71798448  0.04134157  0.90051848     0.12300
H3216       H  0.64603848  0.03259680  0.86384137     0.14200
C3217       C  0.62924965  0.10957144  0.79798866    -0.05800
C3218       C  0.60843661  0.12548655  0.79424744    -0.05700
C3219       C  0.60048983  0.13146320  0.76992090    -0.23900
C3220       C  0.61315784  0.12140081  0.74911931     0.18300
C3221       C  0.63198878  0.10289535  0.75287957     0.15600
C3222       C  0.63983927  0.09702765  0.77732516    -0.18900
C3223       C  0.64438602  0.09244795  0.73215281    -0.20700
C3224       C  0.63988717  0.10189887  0.70813812    -0.13300
C3225       C  0.62322985  0.12215668  0.70456913     0.03400
C3226       C  0.60903033  0.13109944  0.72493027    -0.25400
H3227       H  0.60016456  0.13548204  0.80992418     0.08500
H3228       H  0.58574122  0.14537572  0.76740320     0.12100
H3229       H  0.65596997  0.08476395  0.78014780     0.12000
H3230       H  0.65870434  0.07808887  0.73468290     0.11800
H3231       H  0.65111236  0.09487639  0.69269400     0.12300
H3232       H  0.59614304  0.14673576  0.72222704     0.14200
C3233       C  0.62588537  0.19082004  0.86498786    -0.05800
C3234       C  0.61003753  0.19675402  0.84468114    -0.05700
C3235       C  0.60418903  0.22167566  0.83898896    -0.23900
C3236       C  0.61439587  0.24121124  0.85331864     0.18300
C3237       C  0.62859374  0.23553928  0.87510364     0.15600
C3238       C  0.63404417  0.21021354  0.88101482    -0.18900
C3239       C  0.63884345  0.25535774  0.88922938    -0.20700
C3240       C  0.63673434  0.28025413  0.88076766    -0.13300
C3241       C  0.62442493  0.28566675  0.85803196     0.03400
C3242       C  0.61237442  0.26615849  0.84501126    -0.25400
H3243       H  0.60384567  0.18211949  0.83195240     0.08500
H3244       H  0.59314310  0.22569720  0.82233490     0.12100
H3245       H  0.64675940  0.20583907  0.89635855     0.12000
H3246       H  0.64966849  0.25149109  0.90605367     0.11800
H3247       H  0.64628398  0.29500649  0.89101425     0.12300
H3248       H  0.60276139  0.27022924  0.82750168     0.14200
C3249       C  0.73779865  0.09901804  0.80710911    -0.05800
C3250       C  0.72770503  0.10309381  0.78304991    -0.05700
C3251       C  0.74299933  0.10177912  0.76192302    -0.23900
C3252       C  0.76872829  0.09690167  0.76470681     0.18300
C3253       C  0.77840114  0.09010293  0.78857302     0.15600
C3254       C  0.76267002  0.09069179  0.80967726    -0.18900
C3255       C  0.80413299  0.08533928  0.79135074    -0.20700
C3256       C  0.82042831  0.08984374  0.77145786    -0.13300
C3257       C  0.81127457  0.09908490  0.74839785     0.03400
C3258       C  0.78521631  0.10106678  0.74465292    -0.25400
H3259       H  0.70836663  0.10926714  0.78082177     0.08500
H3260       H  0.73513236  0.10658558  0.74377072     0.12100
H3261       H  0.77047236  0.08764175  0.82824599     0.12000
H3262       H  0.81186421  0.07973578  0.80933062     0.11800
H3263       H  0.84042517  0.08754603  0.77471137     0.12300
H3264       H  0.77791299  0.10772538  0.72684158     0.14200
C3265       C  0.87440937  0.32979047  0.94581387    -0.05800
C3266       C  0.87114106  0.35327073  0.95761388    -0.05700
C3267       C  0.87122718  0.35517737  0.98389633    -0.23900
C3268       C  0.87415771  0.33358008  0.99877997     0.18300
C3269       C  0.87730031  0.30999508  0.98687134     0.15600
C3270       C  0.87767589  0.30833077  0.96071065    -0.18900
C3271       C  0.87973287  0.28821421  0.00123815    -0.20700
C3272       C  0.87869310  0.28955176  0.02722295    -0.13300
C3273       C  0.87562188  0.31274329  0.03956447     0.03400
C3274       C  0.87371690  0.33489897  0.02523493    -0.25400
H3275       H  0.86873423  0.37014719  0.94653383     0.08500
H3276       H  0.86877597  0.37346552  0.99255296     0.12100
H3277       H  0.88007986  0.29007507  0.95191994     0.12000
H3278       H  0.88222579  0.27002619  0.99235680     0.11800
H3279       H  0.88065028  0.27226447  0.03775337     0.12300
H3280       H  0.87142267  0.35288214  0.03456467     0.14200
C3281       C  0.95189804  0.32428707  0.86844119    -0.05800
C3282       C  0.96331019  0.34795676  0.87112543    -0.05700
C3283       C  0.98952337  0.35020100  0.87176909    -0.23900
C3284       C  0.00490092  0.32878909  0.87007556     0.18300
C3285       C  0.99362936  0.30492848  0.86702566     0.15600
C3286       C  0.96731362  0.30287020  0.86592518    -0.18900
C3287       C  0.00883895  0.28339847  0.86590280    -0.20700
C3288       C  0.03484829  0.28535056  0.86876970    -0.13300
C3289       C  0.04626393  0.30888421  0.87219964     0.03400
C3290       C  0.03126086  0.33068418  0.87217398    -0.25400
H3291       H  0.95194594  0.36479968  0.87296686     0.08500
H3292       H  0.99774932  0.36864906  0.87411872     0.12100
H3293       H  0.95885885  0.28447755  0.86387026     0.12000
H3294       H  0.00057517  0.26497177  0.86347799     0.11800
H3295       H  0.04614725  0.26834716  0.86846787     0.12300
H3296       H  0.03995610  0.34887078  0.87492955     0.14200
C3297       C  0.73688618  0.19160556  0.86833870    -0.05800
C3298       C  0.73120583  0.21308847  0.85401384    -0.05700
C3299       C  0.74763763  0.23342921  0.85338896    -0.23900
C3300       C  0.77002709  0.23291441  0.86729606     0.18300
C3301       C  0.77552403  0.21207550  0.88278982     0.15600
C3302       C  0.75896912  0.19141671  0.88309945    -0.18900
C3303       C  0.79785357  0.21206600  0.89703510    -0.20700
C3304       C  0.81511465  0.23186033  0.89493671    -0.13300
C3305       C  0.81039984  0.25184932  0.87839288     0.03400
C3306       C  0.78741382  0.25252651  0.86521337    -0.25400
H3307       H  0.71440593  0.21384284  0.84249369     0.08500
H3308       H  0.74307709  0.24936418  0.84154531     0.12100
H3309       H  0.76349373  0.17507800  0.89439596     0.12000
H3310       H  0.80232329  0.19639283  0.90923576     0.11800
H3311       H  0.83267348  0.23090628  0.90523973     0.12300
H3312       H  0.78341261  0.26801682  0.85258420     0.14200
C3313       C  0.89014977  0.17533936  0.75292182    -0.05800
C3314       C  0.89810126  0.16959850  0.77734128    -0.05700
C3315       C  0.89996037  0.18870674  0.79540523    -0.23900
C3316       C  0.89390159  0.21368978  0.78911698     0.18300
C3317       C  0.88778503  0.21966667  0.76402785     0.15600
C3318       C  0.88584800  0.20045509  0.74619683    -0.18900
C3319       C  0.88188678  0.24449413  0.75749253    -0.20700
C3320       C  0.87995196  0.26293913  0.77601091    -0.13300
C3321       C  0.88393185  0.25689686  0.80136414     0.03400
C3322       C  0.89211587  0.23243370  0.80766241    -0.25400
H3323       H  0.90113804  0.15023573  0.78285422     0.08500
H3324       H  0.90484351  0.18377568  0.81451508     0.12100
H3325       H  0.87919057  0.20479778  0.72749393     0.12000
H3326       H  0.87756361  0.24938853  0.73823578     0.11800
H3327       H  0.87407944  0.28168111  0.77056655     0.12300
H3328       H  0.89552992  0.22755328  0.82710189     0.14200
C3329       C  0.87153077  0.36765410  0.79144771    -0.05800
C3330       C  0.89250711  0.36167949  0.77665211    -0.05700
C3331       C  0.89178165  0.36567131  0.75064479    -0.23900
C3332       C  0.86997701  0.37551057  0.73924552     0.18300
C3333       C  0.84994839  0.38393458  0.75458494     0.15600
C3334       C  0.85101497  0.38022486  0.78053334    -0.18900
C3335       C  0.82806972  0.39364355  0.74360690    -0.20700
C3336       C  0.82488774  0.39255025  0.71773033    -0.13300
C3337       C  0.84352259  0.38182448  0.70232700     0.03400
C3338       C  0.86676522  0.37481940  0.71296698    -0.25400
H3339       H  0.90844822  0.35183929  0.78479016     0.08500
H3340       H  0.90745278  0.35935991  0.73930972     0.12100
H3341       H  0.83479130  0.38487938  0.79197005     0.12000
H3342       H  0.81267542  0.40043918  0.75510728     0.11800
H3343       H  0.80700183  0.39843766  0.70986388     0.12300
H3344       H  0.88116782  0.36644511  0.70124017     0.14200
C3345       C  0.79422110  0.36427376  0.86939923    -0.05800
C3346       C  0.78740669  0.38488958  0.85443389    -0.05700
C3347       C  0.76202933  0.39161867  0.85170806    -0.23900
C3348       C  0.74328948  0.37763712  0.86378094     0.18300
C3349       C  0.75039559  0.35851642  0.88083848     0.15600
C3350       C  0.77583973  0.35226557  0.88380239    -0.18900
C3351       C  0.73189175  0.34402866  0.89249425    -0.20700
C3352       C  0.70677895  0.34650573  0.88524838    -0.13300
C3353       C  0.69974935  0.36404673  0.86692143     0.03400
C3354       C  0.71779226  0.38056017  0.85721081    -0.25400
H3355       H  0.80136260  0.39419604  0.84303719     0.08500
H3356       H  0.75697164  0.40643027  0.83868243     0.12100
H3357       H  0.78112856  0.33627309  0.89530614     0.12000
H3358       H  0.73705550  0.32938656  0.90567447     0.11800
H3359       H  0.69306989  0.33348095  0.89260595     0.12300
H3360       H  0.71241656  0.39372081  0.84260945     0.14200
loop_ 
_geom_bond_atom_site_label_1 
_geom_bond_atom_site_label_2 
_geom_bond_distance 
_geom_bond_site_symmetry_2 
_ccdc_geom_bond_type 
O1          Cr19   1.986       .  S
O1            C9   1.258       .  A
O2          Cr19   1.960       .  S
O2            C3   1.260       .  A
C3            O4   1.272       .  A
C3         C3345   1.470       .  S
O4          Cr20   2.036       .  S
O5          Cr20   1.983       .  S
O5            C6   1.263       .  A
C6            O7   1.268       .  A
C6         C3265   1.483       .  S
O7          Cr21   2.000       .  S
O8          Cr21   2.008       .  S
O8            C9   1.263       .  A
C9         C3305   1.485       .  S
O10         Cr19   1.976       .  S
O10          C18   1.265       .  A
O11         Cr19   1.992       .  S
O11          C12   1.258       .  A
C12          O13   1.258       .  A
C12        C3329   1.472       .  S
O13         Cr20   2.000       .  S
O14         Cr20   2.004       .  S
O14          C15   1.266       .  A
C15          O16   1.262       .  A
C15        C3281   1.486       .  S
O16         Cr21   1.981       .  S
O17         Cr21   2.015       .  S
O17          C18   1.270       .  A
C18        C3321   1.482       .  S
Cr19         O22   1.762       .  S
Cr20         O22   1.780       .  S
Cr21         O22   1.771       .  S
O23         Cr41   1.972       .  S
O23          C31   1.256       .  A
O24         Cr41   1.962       .  S
O24          C25   1.256       .  A
C25          O26   1.271       .  A
C25        C3217   1.472       .  S
O26         Cr42   2.037       .  S
O27         Cr42   2.005       .  S
O27          C28   1.268       .  A
C28          O29   1.269       .  A
C28        C3209   1.497       .  S
O29         Cr43   2.007       .  S
O30         Cr43   1.999       .  S
O30          C31   1.260       .  A
C31        C3249   1.466       .  S
O32         Cr41   1.971       .  S
O32          C40   1.263       .  A
O33         Cr41   1.989       .  S
O33          C34   1.260       .  A
C34          O35   1.266       .  A
C34        C3233   1.476       .  S
O35         Cr42   2.015       .  S
O36         Cr42   2.019       .  S
O36          C37   1.269       .  A
C37          O38   1.262       .  A
C37        C3185   1.486       .  S
O38         Cr43   1.975       .  S
O39         Cr43   2.030       .  S
O39          C40   1.273       .  A
C40        C3297   1.487       .  S
Cr41         O44   1.757       .  S
Cr42         O44   1.773       .  S
Cr43         O44   1.767       .  S
O45         Cr63   1.995       .  S
O45          C53   1.265       .  A
O46         Cr63   1.959       .  S
O46          C47   1.259       .  A
C47          O48   1.275       .  A
C47        C3169   1.489       .  S
O48         Cr64   2.051       .  S
O49         Cr64   2.012       .  S
O49          C50   1.264       .  A
C50          O51   1.257       .  A
C50        C3129   1.484       .  S
O51         Cr65   1.970       .  S
O52         Cr65   1.991       .  S
O52          C53   1.263       .  A
C53        C3313   1.468       .  S
O54         Cr63   1.995       .  S
O54          C62   1.262       .  A
O55         Cr63   1.989       .  S
O55          C56   1.259       .  A
C56          O57   1.260       .  A
C56        C3161   1.470       .  S
O57         Cr64   1.997       .  S
O58         Cr64   2.040       .  S
O58          C59   1.276       .  A
C59          O60   1.264       .  A
C59        C3145   1.490       .  S
O60         Cr65   1.966       .  S
O61         Cr65   1.986       .  S
O61          C62   1.260       .  A
C62        C3257   1.479       .  S
Cr63         O66   1.767       .  S
Cr64         O66   1.781       .  S
Cr65         O66   1.768       .  S
O67         Cr85   1.979       .  S
O67          C75   1.262       .  A
O68         Cr85   1.996       .  S
O68          C69   1.261       .  A
C69          O70   1.259       .  A
C69        C3353   1.466       .  S
O70         Cr86   1.993       .  S
O71         Cr86   2.012       .  S
O71          C72   1.268       .  A
C72          O73   1.266       .  A
C72        C3057   1.491       .  S
O73         Cr87   1.995       .  S
O74         Cr87   2.012       .  S
O74          C75   1.267       .  A
C75        C3105   1.484       .  S
O76         Cr85   1.994       .  S
O76          C84   1.261       .  A
O77         Cr85   1.971       .  S
O77          C78   1.259       .  A
C78          O79   1.271       .  A
C78        C3241   1.480       .  S
O79         Cr86   2.036       .  S
O80         Cr86   1.996       .  S
O80          C81   1.266       .  A
C81          O82   1.267       .  A
C81        C3073   1.488       .  S
O82         Cr87   1.997       .  S
O83         Cr87   2.008       .  S
O83          C84   1.265       .  A
C84        C3097   1.478       .  S
Cr85         O88   1.764       .  S
Cr86         O88   1.777       .  S
Cr87         O88   1.769       .  S
O89        Cr107   1.968       .  S
O89          C97   1.261       .  A
O90        Cr107   1.996       .  S
O90          C91   1.258       .  A
C91          O92   1.263       .  A
C91        C3177   1.483       .  S
O92        Cr108   2.018       .  S
O93        Cr108   2.021       .  S
O93          C94   1.270       .  A
C94          O95   1.263       .  A
C94        C3025   1.492       .  S
O95        Cr109   1.981       .  S
O96        Cr109   2.015       .  S
O96          C97   1.272       .  A
C97        C3041   1.477       .  S
O98        Cr107   1.987       .  S
O98         C106   1.259       .  A
O99        Cr107   1.947       .  S
O99         C100   1.256       .  A
C100        O101   1.275       .  A
C100       C3337   1.478       .  S
O101       Cr108   2.048       .  S
O102       Cr108   2.001       .  S
O102        C103   1.267       .  A
C103        O104   1.267       .  A
C103       C3009   1.493       .  S
O104       Cr109   2.001       .  S
O105       Cr109   2.001       .  S
O105        C106   1.261       .  A
C106       C3113   1.472       .  S
Cr107       O110   1.765       .  S
Cr108       O110   1.772       .  S
Cr109       O110   1.766       .  S
O111       Cr129   2.003       .  S
O111        C119   1.264       .  A
O112       Cr129   1.978       .  S
O112        C113   1.258       .  A
C113        O114   1.267       .  A
C113       C3225   1.474       .  S
O114       Cr130   2.022       .  S
O115       Cr130   1.982       .  S
O115        C116   1.266       .  A
C116        O117   1.269       .  A
C116       C2977   1.475       .  S
O117       Cr131   1.998       .  S
O118       Cr131   1.988       .  S
O118        C119   1.260       .  A
C119       C3089   1.481       .  S
O120       Cr129   1.973       .  S
O120        C128   1.260       .  A
O121       Cr129   2.007       .  S
O121        C122   1.266       .  A
C122        O123   1.264       .  A
C122       C3153   1.471       .  S
O123       Cr130   1.996       .  S
O124       Cr130   2.013       .  S
O124        C125   1.263       .  A
C125        O126   1.257       .  A
C125       C2993   1.485       .  S
O126       Cr131   1.976       .  S
O127       Cr131   1.995       .  S
O127        C128   1.266       .  A
C128       C3049   1.477       .  S
Cr129       O132   1.765       .  S
Cr130       O132   1.778       .  S
Cr131       O132   1.769       .  S
O133       Cr151   1.961       .  S
O133        C141   1.261       .  A
O134       Cr151   1.990       .  S
O134        C135   1.261       .  A
C135        O136   1.262       .  A
C135       C2929   1.469       .  S
O136       Cr152   2.000       .  S
O137       Cr152   2.042       .  S
O137        C138   1.275       .  A
C138        O139   1.262       .  A
C138       C2897   1.499       .  S
O139       Cr153   1.974       .  S
O140       Cr153   2.032       .  S
O140        C141   1.272       .  A
C141       C2961   1.480       .  S
O142       Cr151   1.991       .  S
O142        C150   1.260       .  A
O143       Cr151   1.957       .  S
O143        C144   1.258       .  A
C144        O145   1.273       .  A
C144       C2913   1.478       .  S
O145       Cr152   2.046       .  S
O146       Cr152   1.980       .  S
O146        C147   1.259       .  A
C147        O148   1.268       .  A
C147       C3121   1.481       .  S
O148       Cr153   2.007       .  S
O149       Cr153   1.991       .  S
O149        C150   1.257       .  A
C150       C2953   1.461       .  S
Cr151       O154   1.755       .  S
Cr152       O154   1.771       .  S
Cr153       O154   1.768       .  S
O155       Cr173   1.981       .  S
O155        C163   1.260       .  A
O156       Cr173   1.954       .  S
O156        C157   1.255       .  A
C157        O158   1.277       .  A
C157       C2873   1.478       .  S
O158       Cr174   2.053       .  S
O159       Cr174   2.009       .  S
O159        C160   1.268       .  A
C160        O161   1.267       .  A
C160       C2825   1.495       .  S
O161       Cr175   1.998       .  S
O162       Cr175   1.989       .  S
O162        C163   1.260       .  A
C163       C2857   1.464       .  S
O164       Cr173   1.969       .  S
O164        C172   1.262       .  A
O165       Cr173   2.000       .  S
O165        C166   1.258       .  A
C166        O167   1.263       .  A
C166       C2881   1.479       .  S
O167       Cr174   2.012       .  S
O168       Cr174   2.032       .  S
O168        C169   1.272       .  A
C169        O170   1.259       .  A
C169       C2833   1.486       .  S
O170       Cr175   1.961       .  S
O171       Cr175   2.018       .  S
O171        C172   1.269       .  A
C172       C2969   1.480       .  S
Cr173       O176   1.758       .  S
Cr174       O176   1.771       .  S
Cr175       O176   1.763       .  S
O177       Cr195   1.995       .  S
O177        C185   1.261       .  A
O178       Cr195   1.967       .  S
O178        C179   1.260       .  A
C179        O180   1.276       .  A
C179       C2801   1.481       .  S
O180       Cr196   2.047       .  S
O181       Cr196   1.996       .  S
O181        C182   1.265       .  A
C182        O183   1.264       .  A
C182       C3289   1.477       .  S
O183       Cr197   1.990       .  S
O184       Cr197   1.984       .  S
O184        C185   1.257       .  A
C185       C2945   1.460       .  S
O186       Cr195   1.981       .  S
O186        C194   1.264       .  A
O187       Cr195   2.001       .  S
O187        C188   1.260       .  A
C188        O189   1.261       .  A
C188       C2793   1.474       .  S
O189       Cr196   2.002       .  S
O190       Cr196   2.033       .  S
O190        C191   1.271       .  A
C191        O192   1.258       .  A
C191       C2769   1.490       .  S
O192       Cr197   1.962       .  S
O193       Cr197   2.003       .  S
O193        C194   1.267       .  A
C194       C2849   1.477       .  S
Cr195       O198   1.763       .  S
Cr196       O198   1.773       .  S
Cr197       O198   1.764       .  S
O199       Cr217   1.986       .  S
O199        C207   1.260       .  A
O200       Cr217   1.956       .  S
O200        C201   1.255       .  A
C201        O202   1.278       .  A
C201       C2865   1.481       .  S
O202       Cr218   2.058       .  S
O203       Cr218   1.985       .  S
O203        C204   1.264       .  A
C204        O205   1.271       .  A
C204       C3081   1.488       .  S
O205       Cr219   2.013       .  S
O206       Cr219   1.990       .  S
O206        C207   1.259       .  A
C207       C2753   1.466       .  S
O208       Cr217   1.961       .  S
O208        C216   1.260       .  A
O209       Cr217   2.004       .  S
O209        C210   1.260       .  A
C210        O211   1.260       .  A
C210       C2785   1.472       .  S
O211       Cr218   1.998       .  S
O212       Cr218   2.040       .  S
O212        C213   1.272       .  A
C213        O214   1.257       .  A
C213       C2721   1.491       .  S
O214       Cr219   1.963       .  S
O215       Cr219   2.025       .  S
O215        C216   1.271       .  A
C216       C2737   1.481       .  S
Cr217       O220   1.758       .  S
Cr218       O220   1.773       .  S
Cr219       O220   1.765       .  S
O221       Cr239   1.984       .  S
O221        C229   1.258       .  A
O222       Cr239   1.954       .  S
O222        C223   1.257       .  A
C223        O224   1.279       .  A
C223       C2809   1.479       .  S
O224       Cr240   2.059       .  S
O225       Cr240   1.976       .  S
O225        C226   1.263       .  A
C226        O227   1.273       .  A
C226       C2673   1.490       .  S
O227       Cr241   2.022       .  S
O228       Cr241   1.998       .  S
O228        C229   1.260       .  A
C229       C2745   1.471       .  S
O230       Cr239   1.957       .  S
O230        C238   1.260       .  A
O231       Cr239   1.995       .  S
O231        C232   1.257       .  A
C232        O233   1.256       .  A
C232       C2921   1.470       .  S
O233       Cr240   2.001       .  S
O234       Cr240   2.016       .  S
O234        C235   1.269       .  A
C235        O236   1.261       .  A
C235       C2697   1.490       .  S
O236       Cr241   1.978       .  S
O237       Cr241   2.036       .  S
O237        C238   1.275       .  A
C238       C2713   1.480       .  S
Cr239       O242   1.761       .  S
Cr240       O242   1.772       .  S
Cr241       O242   1.773       .  S
O243       Cr261   1.997       .  S
O243        C251   1.263       .  A
O244       Cr261   1.959       .  S
O244        C245   1.259       .  A
C245        O246   1.272       .  A
C245       C2937   1.479       .  S
O246       Cr262   2.034       .  S
O247       Cr262   2.004       .  S
O247        C248   1.268       .  A
C248        O249   1.267       .  A
C248       C2657   1.495       .  S
O249       Cr263   2.004       .  S
O250       Cr263   1.979       .  S
O250        C251   1.258       .  A
C251       C2705   1.464       .  S
O252       Cr261   1.975       .  S
O252        C260   1.262       .  A
O253       Cr261   2.005       .  S
O253        C254   1.260       .  A
C254        O255   1.262       .  A
C254       C2889   1.479       .  S
O255       Cr262   2.005       .  S
O256       Cr262   2.009       .  S
O256        C257   1.266       .  A
C257        O258   1.258       .  A
C257       C2985   1.472       .  S
O258       Cr263   1.961       .  S
O259       Cr263   2.015       .  S
O259        C260   1.268       .  A
C260       C2761   1.481       .  S
Cr261       O264   1.764       .  S
Cr262       O264   1.776       .  S
Cr263       O264   1.773       .  S
O265       Cr283   1.975       .  S
O265        C273   1.261       .  A
O266       Cr283   1.990       .  S
O266        C267   1.261       .  A
C267        O268   1.263       .  A
C267       C2641   1.472       .  S
O268       Cr284   2.006       .  S
O269       Cr284   2.003       .  S
O269        C270   1.266       .  A
C270        O271   1.266       .  A
C270       C2841   1.484       .  S
O271       Cr285   1.987       .  S
O272       Cr285   2.013       .  S
O272        C273   1.268       .  A
C273       C2617   1.481       .  S
O274       Cr283   1.986       .  S
O274        C282   1.261       .  A
O275       Cr283   1.969       .  S
O275        C276   1.258       .  A
C276        O277   1.268       .  A
C276       C2625   1.469       .  S
O277       Cr284   2.021       .  S
O278       Cr284   1.997       .  S
O278        C279   1.265       .  A
C279        O280   1.264       .  A
C279       C2577   1.477       .  S
O280       Cr285   1.992       .  S
O281       Cr285   2.007       .  S
O281        C282   1.263       .  A
C282       C2601   1.477       .  S
Cr283       O286   1.761       .  S
Cr284       O286   1.779       .  S
Cr285       O286   1.772       .  S
O287       Cr305   1.995       .  S
O287        C295   1.264       .  A
O288       Cr305   1.947       .  S
O288        C289   1.255       .  A
C289        O290   1.274       .  A
C289       C2545   1.480       .  S
O290       Cr306   2.048       .  S
O291       Cr306   1.990       .  S
O291        C292   1.263       .  A
C292        O293   1.268       .  A
C292       C2497   1.493       .  S
O293       Cr307   2.013       .  S
O294       Cr307   1.993       .  S
O294        C295   1.261       .  A
C295       C2593   1.475       .  S
O296       Cr305   1.974       .  S
O296        C304   1.261       .  A
O297       Cr305   2.005       .  S
O297        C298   1.262       .  A
C298        O299   1.260       .  A
C298       C2537   1.476       .  S
O299       Cr306   1.998       .  S
O300       Cr306   2.032       .  S
O300        C301   1.272       .  A
C301        O302   1.260       .  A
C301       C2521   1.489       .  S
O302       Cr307   1.963       .  S
O303       Cr307   2.025       .  S
O303        C304   1.271       .  A
C304       C2561   1.487       .  S
Cr305       O308   1.760       .  S
Cr306       O308   1.778       .  S
Cr307       O308   1.770       .  S
O309       Cr327   1.986       .  S
O309        C317   1.255       .  A
O310       Cr327   1.955       .  S
O310        C311   1.259       .  A
C311        O312   1.280       .  A
C311       C2465   1.475       .  S
O312       Cr328   2.053       .  S
O313       Cr328   1.976       .  S
O313        C314   1.261       .  A
C314        O315   1.268       .  A
C314       C2449   1.477       .  S
O315       Cr329   2.001       .  S
O316       Cr329   2.005       .  S
O316        C317   1.259       .  A
C317       C2569   1.478       .  S
O318       Cr327   1.969       .  S
O318        C326   1.265       .  A
O319       Cr327   1.998       .  S
O319        C320   1.255       .  A
C320        O321   1.256       .  A
C320       C2481   1.469       .  S
O321       Cr328   1.997       .  S
O322       Cr328   2.027       .  S
O322        C323   1.269       .  A
C323        O324   1.262       .  A
C323       C2905   1.500       .  S
O324       Cr329   1.978       .  S
O325       Cr329   2.021       .  S
O325        C326   1.275       .  A
C326       C2609   1.480       .  S
Cr327       O330   1.770       .  S
Cr328       O330   1.781       .  S
Cr329       O330   1.770       .  S
O331       Cr349   1.980       .  S
O331        C339   1.262       .  A
O332       Cr349   1.999       .  S
O332        C333   1.263       .  A
C333        O334   1.264       .  A
C333       C2553   1.474       .  S
O334       Cr350   2.003       .  S
O335       Cr350   2.001       .  S
O335        C336   1.265       .  A
C336        O337   1.267       .  A
C336       C2729   1.491       .  S
O337       Cr351   2.004       .  S
O338       Cr351   1.997       .  S
O338        C339   1.264       .  A
C339       C2417   1.479       .  S
O340       Cr349   1.981       .  S
O340        C348   1.261       .  A
O341       Cr349   1.971       .  S
O341        C342   1.255       .  A
C342        O343   1.266       .  A
C342       C2633   1.469       .  S
O343       Cr350   2.021       .  S
O344       Cr350   2.007       .  S
O344        C345   1.269       .  A
C345        O346   1.265       .  A
C345       C2401   1.487       .  S
O346       Cr351   1.989       .  S
O347       Cr351   2.008       .  S
O347        C348   1.266       .  A
C348       C2433   1.478       .  S
Cr349       O352   1.763       .  S
Cr350       O352   1.774       .  S
Cr351       O352   1.769       .  S
O353       Cr371   1.989       .  S
O353        C361   1.261       .  A
O354       Cr371   1.964       .  S
O354        C355   1.258       .  A
C355        O356   1.272       .  A
C355       C2649   1.477       .  S
O356       Cr372   2.041       .  S
O357       Cr372   1.990       .  S
O357        C358   1.266       .  A
C358        O359   1.269       .  A
C358       C2353   1.483       .  S
O359       Cr373   2.006       .  S
O360       Cr373   1.993       .  S
O360        C361   1.260       .  A
C361       C2441   1.476       .  S
O362       Cr371   1.980       .  S
O362        C370   1.263       .  A
O363       Cr371   1.996       .  S
O363        C364   1.260       .  A
C364        O365   1.261       .  A
C364       C2489   1.467       .  S
O365       Cr372   1.998       .  S
O366       Cr372   2.015       .  S
O366        C367   1.267       .  A
C367        O368   1.262       .  A
C367       C2377   1.488       .  S
O368       Cr373   1.979       .  S
O369       Cr373   2.022       .  S
O369        C370   1.271       .  A
C370       C2393   1.489       .  S
Cr371       O374   1.764       .  S
Cr372       O374   1.779       .  S
Cr373       O374   1.769       .  S
O375       Cr393   1.985       .  S
O375        C383   1.256       .  A
O376       Cr393   1.956       .  S
O376        C377   1.259       .  A
C377        O378   1.277       .  A
C377       C2473   1.473       .  S
O378       Cr394   2.051       .  S
O379       Cr394   1.986       .  S
O379        C380   1.265       .  A
C380        O381   1.272       .  A
C380       C2337   1.494       .  S
O381       Cr395   2.021       .  S
O382       Cr395   1.998       .  S
O382        C383   1.259       .  A
C383       C2385   1.479       .  S
O384       Cr393   1.960       .  S
O384        C392   1.262       .  A
O385       Cr393   1.993       .  S
O385        C386   1.256       .  A
C386        O387   1.262       .  A
C386       C2529   1.477       .  S
O387       Cr394   2.016       .  S
O388       Cr394   2.030       .  S
O388        C389   1.269       .  A
C389        O390   1.257       .  A
C389       C2681   1.490       .  S
O390       Cr395   1.964       .  S
O391       Cr395   2.030       .  S
O391        C392   1.276       .  A
C392       C2425   1.480       .  S
Cr393       O396   1.764       .  S
Cr394       O396   1.776       .  S
Cr395       O396   1.771       .  S
O397       Cr415   1.992       .  S
O397        C405   1.263       .  A
O398       Cr415   1.959       .  S
O398        C399   1.255       .  A
C399        O400   1.275       .  A
C399       C2305   1.474       .  S
O400       Cr416   2.048       .  S
O401       Cr416   1.994       .  S
O401        C402   1.266       .  A
C402        O403   1.269       .  A
C402       C3137   1.483       .  S
O403       Cr417   2.004       .  S
O404       Cr417   1.988       .  S
O404        C405   1.259       .  A
C405       C2321   1.476       .  S
O406       Cr415   1.970       .  S
O406        C414   1.260       .  A
O407       Cr415   2.003       .  S
O407        C408   1.260       .  A
C408        O409   1.260       .  A
C408       C2281   1.469       .  S
O409       Cr416   1.997       .  S
O410       Cr416   2.026       .  S
O410        C411   1.269       .  A
C411        O412   1.258       .  A
C411       C2457   1.486       .  S
O412       Cr417   1.963       .  S
O413       Cr417   2.023       .  S
O413        C414   1.270       .  A
C414       C2289   1.484       .  S
Cr415       O418   1.759       .  S
Cr416       O418   1.777       .  S
Cr417       O418   1.763       .  S
O419       Cr437   1.989       .  S
O419        C427   1.261       .  A
O420       Cr437   1.968       .  S
O420        C421   1.257       .  A
C421        O422   1.272       .  A
C421       C2225   1.478       .  S
O422       Cr438   2.036       .  S
O423       Cr438   1.990       .  S
O423        C424   1.264       .  A
C424        O425   1.267       .  A
C424       C2513   1.475       .  S
O425       Cr439   1.998       .  S
O426       Cr439   1.991       .  S
O426        C427   1.261       .  A
C427       C2297   1.470       .  S
O428       Cr437   1.982       .  S
O428        C436   1.264       .  A
O429       Cr437   2.004       .  S
O429        C430   1.262       .  A
C430        O431   1.260       .  A
C430       C2241   1.472       .  S
O431       Cr438   1.996       .  S
O432       Cr438   2.015       .  S
O432        C433   1.268       .  A
C433        O434   1.261       .  A
C433       C2209   1.487       .  S
O434       Cr439   1.978       .  S
O435       Cr439   2.005       .  S
O435        C436   1.267       .  A
C436       C2257   1.482       .  S
Cr437       O440   1.765       .  S
Cr438       O440   1.779       .  S
Cr439       O440   1.771       .  S
O441       Cr459   1.954       .  S
O441        C449   1.259       .  A
O442       Cr459   2.000       .  S
O442        C443   1.258       .  A
C443        O444   1.259       .  A
C443       C2193   1.476       .  S
O444       Cr460   2.006       .  S
O445       Cr460   2.024       .  S
O445        C446   1.269       .  A
C446        O447   1.260       .  A
C446       C2169   1.492       .  S
O447       Cr461   1.972       .  S
O448       Cr461   2.040       .  S
O448        C449   1.276       .  A
C449       C2265   1.483       .  S
O450       Cr459   1.986       .  S
O450        C458   1.260       .  A
O451       Cr459   1.948       .  S
O451        C452   1.256       .  A
C452        O453   1.277       .  A
C452       C2185   1.475       .  S
O453       Cr460   2.056       .  S
O454       Cr460   1.984       .  S
O454        C455   1.265       .  A
C455        O456   1.273       .  A
C455       C3201   1.496       .  S
O456       Cr461   2.025       .  S
O457       Cr461   1.997       .  S
O457        C458   1.260       .  A
C458       C2329   1.476       .  S
Cr459       O462   1.761       .  S
Cr460       O462   1.773       .  S
Cr461       O462   1.769       .  S
O463       Cr481   1.987       .  S
O463        C471   1.262       .  A
O464       Cr481   1.961       .  S
O464        C465   1.256       .  A
C465        O466   1.275       .  A
C465       C2233   1.476       .  S
O466       Cr482   2.049       .  S
O467       Cr482   1.986       .  S
O467        C468   1.265       .  A
C468        O469   1.272       .  A
C468       C3017   1.493       .  S
O469       Cr483   2.020       .  S
O470       Cr483   1.977       .  S
O470        C471   1.257       .  A
C471       C2145   1.464       .  S
O472       Cr481   1.963       .  S
O472        C480   1.260       .  A
O473       Cr481   2.004       .  S
O473        C474   1.261       .  A
C474        O475   1.261       .  A
C474       C2273   1.472       .  S
O475       Cr482   1.996       .  S
O476       Cr482   2.027       .  S
O476        C477   1.269       .  A
C477        O478   1.256       .  A
C477       C2113   1.483       .  S
O478       Cr483   1.957       .  S
O479       Cr483   2.035       .  S
O479        C480   1.273       .  A
C480       C2129   1.487       .  S
Cr481       O484   1.756       .  S
Cr482       O484   1.772       .  S
Cr483       O484   1.767       .  S
O485       Cr503   2.000       .  S
O485        C493   1.264       .  A
O486       Cr503   1.946       .  S
O486        C487   1.254       .  A
C487        O488   1.277       .  A
C487       C2201   1.475       .  S
O488       Cr504   2.060       .  S
O489       Cr504   1.971       .  S
O489        C490   1.262       .  A
C490        O491   1.273       .  A
C490       C2409   1.487       .  S
O491       Cr505   2.021       .  S
O492       Cr505   1.978       .  S
O492        C493   1.258       .  A
C493       C2097   1.471       .  S
O494       Cr503   1.953       .  S
O494        C502   1.257       .  A
O495       Cr503   2.010       .  S
O495        C496   1.262       .  A
C496        O497   1.258       .  A
C496       C2249   1.472       .  S
O497       Cr504   1.989       .  S
O498       Cr504   2.042       .  S
O498        C499   1.272       .  A
C499        O500   1.256       .  A
C499       C3065   1.491       .  S
O500       Cr505   1.960       .  S
O501       Cr505   2.025       .  S
O501        C502   1.271       .  A
C502       C2153   1.476       .  S
Cr503       O506   1.760       .  S
Cr504       O506   1.773       .  S
Cr505       O506   1.766       .  S
O507       Cr525   1.994       .  S
O507        C515   1.263       .  A
O508       Cr525   1.965       .  S
O508        C509   1.256       .  A
C509        O510   1.272       .  A
C509       C2313   1.480       .  S
O510       Cr526   2.042       .  S
O511       Cr526   2.009       .  S
O511        C512   1.269       .  A
C512        O513   1.269       .  A
C512       C2081   1.495       .  S
O513       Cr527   1.998       .  S
O514       Cr527   1.989       .  S
O514        C515   1.260       .  A
C515       C2137   1.475       .  S
O516       Cr525   1.966       .  S
O516        C524   1.259       .  A
O517       Cr525   2.002       .  S
O517        C518   1.263       .  A
C518        O519   1.263       .  A
C518       C2177   1.475       .  S
O519       Cr526   2.004       .  S
O520       Cr526   2.020       .  S
O520        C521   1.269       .  A
C521        O522   1.261       .  A
C521       C2361   1.487       .  S
O522       Cr527   1.977       .  S
O523       Cr527   2.018       .  S
O523        C524   1.268       .  A
C524       C2105   1.481       .  S
Cr525       O528   1.763       .  S
Cr526       O528   1.776       .  S
Cr527       O528   1.770       .  S
O529       Cr547   1.984       .  S
O529        C537   1.262       .  A
O530       Cr547   1.968       .  S
O530        C531   1.258       .  A
C531        O532   1.272       .  A
C531       C2049   1.483       .  S
O532       Cr548   2.037       .  S
O533       Cr548   2.009       .  S
O533        C534   1.266       .  A
C534        O535   1.262       .  A
C534       C2001   1.485       .  S
O535       Cr549   1.985       .  S
O536       Cr549   1.983       .  S
O536        C537   1.260       .  A
C537       C2033   1.460       .  S
O538       Cr547   1.986       .  S
O538        C546   1.263       .  A
O539       Cr547   1.998       .  S
O539        C540   1.261       .  A
C540        O541   1.264       .  A
C540       C2065   1.476       .  S
O541       Cr548   2.006       .  S
O542       Cr548   2.033       .  S
O542        C543   1.271       .  A
C543        O544   1.259       .  A
C543       C3273   1.480       .  S
O544       Cr549   1.958       .  S
O545       Cr549   1.996       .  S
O545        C546   1.264       .  A
C546       C2025   1.479       .  S
Cr547       O550   1.761       .  S
Cr548       O550   1.774       .  S
Cr549       O550   1.765       .  S
O551       Cr569   1.992       .  S
O551        C559   1.260       .  A
O552       Cr569   1.959       .  S
O552        C553   1.257       .  A
C553        O554   1.278       .  A
C553       C2057   1.476       .  S
O554       Cr570   2.057       .  S
O555       Cr570   1.977       .  S
O555        C556   1.264       .  A
C556        O557   1.271       .  A
C556       C1945   1.477       .  S
O557       Cr571   2.006       .  S
O558       Cr571   1.984       .  S
O558        C559   1.257       .  A
C559       C1953   1.472       .  S
O560       Cr569   1.962       .  S
O560        C568   1.260       .  A
O561       Cr569   2.002       .  S
O561        C562   1.259       .  A
C562        O563   1.260       .  A
C562       C1977   1.471       .  S
O563       Cr570   1.998       .  S
O564       Cr570   2.037       .  S
O564        C565   1.269       .  A
C565        O566   1.256       .  A
C565       C3033   1.493       .  S
O566       Cr571   1.961       .  S
O567       Cr571   2.017       .  S
O567        C568   1.271       .  A
C568       C1985   1.475       .  S
Cr569       O572   1.762       .  S
Cr570       O572   1.777       .  S
Cr571       O572   1.766       .  S
O573       Cr591   1.990       .  S
O573        C581   1.262       .  A
O574       Cr591   1.952       .  S
O574        C575   1.256       .  A
C575        O576   1.277       .  A
C575       C1921   1.479       .  S
O576       Cr592   2.056       .  S
O577       Cr592   1.998       .  S
O577        C578   1.267       .  A
C578        O579   1.265       .  A
C578       C1889   1.484       .  S
O579       Cr593   1.991       .  S
O580       Cr593   1.989       .  S
O580        C581   1.260       .  A
C581       C1913   1.465       .  S
O582       Cr591   1.972       .  S
O582        C590   1.261       .  A
O583       Cr591   1.998       .  S
O583        C584   1.258       .  A
C584        O585   1.259       .  A
C584       C1969   1.471       .  S
O585       Cr592   1.998       .  S
O586       Cr592   2.030       .  S
O586        C587   1.272       .  A
C587        O588   1.260       .  A
C587       C1873   1.488       .  S
O588       Cr593   1.967       .  S
O589       Cr593   2.005       .  S
O589        C590   1.267       .  A
C590       C2041   1.475       .  S
Cr591       O594   1.762       .  S
Cr592       O594   1.772       .  S
Cr593       O594   1.764       .  S
O595       Cr613   1.966       .  S
O595        C603   1.258       .  A
O596       Cr613   2.004       .  S
O596        C597   1.264       .  A
C597        O598   1.264       .  A
C597       C1857   1.474       .  S
O598       Cr614   2.001       .  S
O599       Cr614   2.020       .  S
O599        C600   1.268       .  A
C600        O601   1.259       .  A
C600       C3193   1.485       .  S
O601       Cr615   1.971       .  S
O602       Cr615   2.019       .  S
O602        C603   1.269       .  A
C603       C2017   1.479       .  S
O604       Cr613   1.993       .  S
O604        C612   1.263       .  A
O605       Cr613   1.967       .  S
O605        C606   1.256       .  A
C606        O607   1.271       .  A
C606       C1841   1.476       .  S
O607       Cr614   2.033       .  S
O608       Cr614   1.992       .  S
O608        C609   1.267       .  A
C609        O610   1.271       .  A
C609       C1825   1.492       .  S
O610       Cr615   2.014       .  S
O611       Cr615   1.981       .  S
O611        C612   1.259       .  A
C612       C1905   1.468       .  S
Cr613       O616   1.758       .  S
Cr614       O616   1.772       .  S
Cr615       O616   1.768       .  S
O617       Cr635   1.994       .  S
O617        C625   1.261       .  A
O618       Cr635   1.961       .  S
O618        C619   1.256       .  A
C619        O620   1.275       .  A
C619       C1865   1.481       .  S
O620       Cr636   2.050       .  S
O621       Cr636   1.972       .  S
O621        C622   1.264       .  A
C622        O623   1.273       .  A
C622       C1793   1.485       .  S
O623       Cr637   2.021       .  S
O624       Cr637   1.993       .  S
O624        C625   1.259       .  A
C625       C1809   1.480       .  S
O626       Cr635   1.954       .  S
O626        C634   1.259       .  A
O627       Cr635   2.007       .  S
O627        C628   1.263       .  A
C628        O629   1.264       .  A
C628       C2073   1.478       .  S
O629       Cr636   2.006       .  S
O630       Cr636   2.034       .  S
O630        C631   1.269       .  A
C631        O632   1.259       .  A
C631       C1777   1.497       .  S
O632       Cr637   1.974       .  S
O633       Cr637   2.033       .  S
O633        C634   1.274       .  A
C634       C1961   1.483       .  S
Cr635       O638   1.760       .  S
Cr636       O638   1.774       .  S
Cr637       O638   1.772       .  S
O639       Cr657   1.973       .  S
O639        C647   1.262       .  A
O640       Cr657   2.001       .  S
O640        C641   1.259       .  A
C641        O642   1.261       .  A
C641       C1929   1.476       .  S
O642       Cr658   2.005       .  S
O643       Cr658   2.018       .  S
O643        C644   1.268       .  A
C644        O645   1.261       .  A
C644       C3001   1.487       .  S
O645       Cr659   1.971       .  S
O646       Cr659   2.011       .  S
O646        C647   1.269       .  A
C647       C1993   1.477       .  S
O648       Cr657   1.990       .  S
O648        C656   1.261       .  A
O649       Cr657   1.963       .  S
O649        C650   1.259       .  A
C650        O651   1.273       .  A
C650       C1849   1.472       .  S
O651       Cr658   2.036       .  S
O652       Cr658   1.995       .  S
O652        C653   1.265       .  A
C653        O654   1.267       .  A
C653       C1769   1.493       .  S
O654       Cr659   2.005       .  S
O655       Cr659   2.004       .  S
O655        C656   1.263       .  A
C656       C1817   1.476       .  S
Cr657       O660   1.763       .  S
Cr658       O660   1.776       .  S
Cr659       O660   1.772       .  S
O661       Cr679   1.978       .  S
O661        C669   1.256       .  A
O662       Cr679   1.959       .  S
O662        C663   1.258       .  A
C663        O664   1.273       .  A
C663       C1745   1.476       .  S
O664       Cr680   2.037       .  S
O665       Cr680   1.992       .  S
O665        C666   1.266       .  A
C666        O667   1.269       .  A
C666       C1681   1.489       .  S
O667       Cr681   2.006       .  S
O668       Cr681   1.999       .  S
O668        C669   1.260       .  A
C669       C1705   1.471       .  S
O670       Cr679   1.973       .  S
O670        C678   1.265       .  A
O671       Cr679   1.996       .  S
O671        C672   1.257       .  A
C672        O673   1.260       .  A
C672       C1729   1.475       .  S
O673       Cr680   2.008       .  S
O674       Cr680   2.001       .  S
O674        C675   1.264       .  A
C675        O676   1.262       .  A
C675       C1897   1.483       .  S
O676       Cr681   1.982       .  S
O677       Cr681   2.023       .  S
O677        C678   1.273       .  A
C678       C1713   1.486       .  S
Cr679       O682   1.768       .  S
Cr680       O682   1.780       .  S
Cr681       O682   1.774       .  S
O683       Cr701   1.991       .  S
O683        C691   1.261       .  A
O684       Cr701   1.948       .  S
O684        C685   1.255       .  A
C685        O686   1.276       .  A
C685       C1657   1.481       .  S
O686       Cr702   2.058       .  S
O687       Cr702   1.997       .  S
O687        C688   1.265       .  A
C688        O689   1.265       .  A
C688       C2217   1.481       .  S
O689       Cr703   1.994       .  S
O690       Cr703   1.984       .  S
O690        C691   1.258       .  A
C691       C1633   1.466       .  S
O692       Cr701   1.975       .  S
O692        C700   1.262       .  A
O693       Cr701   1.995       .  S
O693        C694   1.259       .  A
C694        O695   1.263       .  A
C694       C1665   1.473       .  S
O695       Cr702   2.006       .  S
O696       Cr702   2.038       .  S
O696        C697   1.274       .  A
C697        O698   1.261       .  A
C697       C1617   1.495       .  S
O698       Cr703   1.972       .  S
O699       Cr703   2.015       .  S
O699        C700   1.269       .  A
C700       C1697   1.482       .  S
Cr701       O704   1.764       .  S
Cr702       O704   1.777       .  S
Cr703       O704   1.768       .  S
O705       Cr723   1.987       .  S
O705        C713   1.259       .  A
O706       Cr723   1.947       .  S
O706        C707   1.257       .  A
C707        O708   1.278       .  A
C707       C1609   1.477       .  S
O708       Cr724   2.059       .  S
O709       Cr724   1.987       .  S
O709        C710   1.265       .  A
C710        O711   1.269       .  A
C710       C1833   1.491       .  S
O711       Cr725   2.012       .  S
O712       Cr725   2.004       .  S
O712        C713   1.263       .  A
C713       C1721   1.476       .  S
O714       Cr723   1.965       .  S
O714        C722   1.261       .  A
O715       Cr723   1.995       .  S
O715        C716   1.256       .  A
C716        O717   1.259       .  A
C716       C1593   1.476       .  S
O717       Cr724   2.009       .  S
O718       Cr724   2.024       .  S
O718        C719   1.271       .  A
C719        O720   1.262       .  A
C719       C2161   1.492       .  S
O720       Cr725   1.976       .  S
O721       Cr725   2.024       .  S
O721        C722   1.273       .  A
C722       C1641   1.479       .  S
Cr723       O726   1.764       .  S
Cr724       O726   1.772       .  S
Cr725       O726   1.770       .  S
O727       Cr745   1.967       .  S
O727        C735   1.261       .  A
O728       Cr745   1.998       .  S
O728        C729   1.259       .  A
C729        O730   1.259       .  A
C729       C1601   1.475       .  S
O730       Cr746   2.002       .  S
O731       Cr746   2.020       .  S
O731        C732   1.271       .  A
C732        O733   1.262       .  A
C732       C1537   1.484       .  S
O733       Cr747   1.968       .  S
O734       Cr747   2.031       .  S
O734        C735   1.272       .  A
C735       C1553   1.485       .  S
O736       Cr745   1.989       .  S
O736        C744   1.260       .  A
O737       Cr745   1.952       .  S
O737        C738   1.256       .  A
C738        O739   1.274       .  A
C738       C1737   1.478       .  S
O739       Cr746   2.048       .  S
O740       Cr746   1.998       .  S
O740        C741   1.265       .  A
C741        O742   1.268       .  A
C741       C2089   1.494       .  S
O742       Cr747   2.007       .  S
O743       Cr747   1.992       .  S
O743        C744   1.259       .  A
C744       C1577   1.464       .  S
Cr745       O748   1.762       .  S
Cr746       O748   1.773       .  S
Cr747       O748   1.771       .  S
O749       Cr767   1.999       .  S
O749        C757   1.264       .  A
O750       Cr767   1.964       .  S
O750        C751   1.258       .  A
C751        O752   1.272       .  A
C751       C1753   1.472       .  S
O752       Cr768   2.036       .  S
O753       Cr768   1.985       .  S
O753        C754   1.263       .  A
C754        O755   1.267       .  A
C754       C2121   1.476       .  S
O755       Cr769   1.998       .  S
O756       Cr769   1.974       .  S
O756        C757   1.256       .  A
C757       C1569   1.467       .  S
O758       Cr767   1.962       .  S
O758        C766   1.260       .  A
O759       Cr767   2.006       .  S
O759        C760   1.265       .  A
C760        O761   1.263       .  A
C760       C1673   1.477       .  S
O761       Cr768   2.001       .  S
O762       Cr768   2.027       .  S
O762        C763   1.269       .  A
C763        O764   1.255       .  A
C763       C1937   1.483       .  S
O764       Cr769   1.954       .  S
O765       Cr769   2.008       .  S
O765        C766   1.267       .  A
C766       C1529   1.473       .  S
Cr767       O770   1.756       .  S
Cr768       O770   1.775       .  S
Cr769       O770   1.768       .  S
O771       Cr789   1.964       .  S
O771        C779   1.260       .  A
O772       Cr789   1.997       .  S
O772        C773   1.258       .  A
C773        O774   1.259       .  A
C773       C1649   1.478       .  S
O774       Cr790   2.005       .  S
O775       Cr790   2.039       .  S
O775        C776   1.272       .  A
C776        O777   1.261       .  A
C776       C1785   1.497       .  S
O777       Cr791   1.968       .  S
O778       Cr791   2.010       .  S
O778        C779   1.269       .  A
C779       C1521   1.472       .  S
O780       Cr789   1.991       .  S
O780        C788   1.261       .  A
O781       Cr789   1.943       .  S
O781        C782   1.255       .  A
C782        O783   1.279       .  A
C782       C1585   1.479       .  S
O783       Cr790   2.064       .  S
O784       Cr790   1.988       .  S
O784        C785   1.264       .  A
C785        O786   1.266       .  A
C785       C1505   1.480       .  S
O786       Cr791   1.994       .  S
O787       Cr791   1.995       .  S
O787        C788   1.261       .  A
C788       C1561   1.471       .  S
Cr789       O792   1.762       .  S
Cr790       O792   1.774       .  S
Cr791       O792   1.766       .  S
O793       Cr811   1.972       .  S
O793        C801   1.255       .  A
O794       Cr811   1.959       .  S
O794        C795   1.256       .  A
C795        O796   1.277       .  A
C795       C1457   1.471       .  S
O796       Cr812   2.051       .  S
O797       Cr812   2.000       .  S
O797        C798   1.268       .  A
C798        O799   1.267       .  A
C798       C2689   1.489       .  S
O799       Cr813   1.996       .  S
O800       Cr813   2.009       .  S
O800        C801   1.261       .  A
C801       C1473   1.475       .  S
O802       Cr811   1.969       .  S
O802        C810   1.262       .  A
O803       Cr811   1.985       .  S
O803        C804   1.255       .  A
C804        O805   1.263       .  A
C804       C1441   1.472       .  S
O805       Cr812   2.017       .  S
O806       Cr812   2.026       .  S
O806        C807   1.270       .  A
C807        O808   1.261       .  A
C807       C1433   1.491       .  S
O808       Cr813   1.977       .  S
O809       Cr813   2.008       .  S
O809        C810   1.272       .  A
C810       C1489   1.472       .  S
Cr811       O814   1.761       .  S
Cr812       O814   1.771       .  S
Cr813       O814   1.763       .  S
O815       Cr833   1.970       .  S
O815        C823   1.262       .  A
O816       Cr833   1.996       .  S
O816        C817   1.256       .  A
C817        O818   1.261       .  A
C817       C1393   1.477       .  S
O818       Cr834   2.009       .  S
O819       Cr834   2.026       .  S
O819        C820   1.269       .  A
C820        O821   1.259       .  A
C820       C1361   1.485       .  S
O821       Cr835   1.965       .  S
O822       Cr835   2.005       .  S
O822        C823   1.270       .  A
C823       C1497   1.472       .  S
O824       Cr833   1.981       .  S
O824        C832   1.259       .  A
O825       Cr833   1.952       .  S
O825        C826   1.256       .  A
C826        O827   1.277       .  A
C826       C1377   1.473       .  S
O827       Cr834   2.053       .  S
O828       Cr834   1.994       .  S
O828        C829   1.267       .  A
C829        O830   1.266       .  A
C829       C1801   1.484       .  S
O830       Cr835   1.995       .  S
O831       Cr835   1.997       .  S
O831        C832   1.261       .  A
C832       C1417   1.473       .  S
Cr833       O836   1.763       .  S
Cr834       O836   1.772       .  S
Cr835       O836   1.764       .  S
O837       Cr855   1.969       .  S
O837        C845   1.262       .  A
O838       Cr855   1.994       .  S
O838        C839   1.259       .  A
C839        O840   1.266       .  A
C839       C1353   1.481       .  S
O840       Cr856   2.019       .  S
O841       Cr856   2.039       .  S
O841        C842   1.272       .  A
C842        O843   1.258       .  A
C842       C1761   1.487       .  S
O843       Cr857   1.963       .  S
O844       Cr857   2.021       .  S
O844        C845   1.270       .  A
C845       C1409   1.482       .  S
O846       Cr855   1.987       .  S
O846        C854   1.260       .  A
O847       Cr855   1.960       .  S
O847        C848   1.258       .  A
C848        O849   1.277       .  A
C848       C1329   1.484       .  S
O849       Cr856   2.057       .  S
O850       Cr856   2.013       .  S
O850        C851   1.269       .  A
C851        O852   1.268       .  A
C851       C2665   1.498       .  S
O852       Cr857   1.998       .  S
O853       Cr857   1.987       .  S
O853        C854   1.257       .  A
C854       C1481   1.474       .  S
Cr855       O858   1.762       .  S
Cr856       O858   1.776       .  S
Cr857       O858   1.768       .  S
O859       Cr877   1.988       .  S
O859        C867   1.260       .  A
O860       Cr877   1.970       .  S
O860        C861   1.259       .  A
C861        O862   1.270       .  A
C861       C1465   1.476       .  S
O862       Cr878   2.029       .  S
O863       Cr878   1.994       .  S
O863        C864   1.263       .  A
C864        O865   1.265       .  A
C864       C1881   1.481       .  S
O865       Cr879   1.996       .  S
O866       Cr879   2.001       .  S
O866        C867   1.261       .  A
C867       C1313   1.474       .  S
O868       Cr877   1.978       .  S
O868        C876   1.263       .  A
O869       Cr877   1.995       .  S
O869        C870   1.261       .  A
C870        O871   1.262       .  A
C870       C1337   1.477       .  S
O871       Cr878   2.007       .  S
O872       Cr878   2.009       .  S
O872        C873   1.269       .  A
C873        O874   1.264       .  A
C873       C1289   1.490       .  S
O874       Cr879   1.990       .  S
O875       Cr879   2.012       .  S
O875        C876   1.269       .  A
C876       C1297   1.480       .  S
Cr877       O880   1.765       .  S
Cr878       O880   1.778       .  S
Cr879       O880   1.778       .  S
O881       Cr899   1.965       .  S
O881        C889   1.263       .  A
O882       Cr899   1.991       .  S
O882        C883   1.255       .  A
C883        O884   1.261       .  A
C883       C1345   1.477       .  S
O884       Cr900   2.014       .  S
O885       Cr900   2.044       .  S
O885        C886   1.275       .  A
C886        O887   1.257       .  A
C886       C1249   1.484       .  S
O887       Cr901   1.951       .  S
O888       Cr901   2.033       .  S
O888        C889   1.276       .  A
C889       C1305   1.480       .  S
O890       Cr899   1.984       .  S
O890        C898   1.256       .  A
O891       Cr899   1.942       .  S
O891        C892   1.257       .  A
C892        O893   1.281       .  A
C892       C1385   1.478       .  S
O893       Cr900   2.061       .  S
O894       Cr900   1.988       .  S
O894        C895   1.262       .  A
C895        O896   1.269       .  A
C895       C2817   1.494       .  S
O896       Cr901   2.012       .  S
O897       Cr901   1.980       .  S
O897        C898   1.254       .  A
C898       C1273   1.454       .  S
Cr899       O902   1.766       .  S
Cr900       O902   1.772       .  S
Cr901       O902   1.767       .  S
O903       Cr921   1.964       .  S
O903        C911   1.260       .  A
O904       Cr921   2.008       .  S
O904        C905   1.261       .  A
C905        O906   1.260       .  A
C905       C1401   1.474       .  S
O906       Cr922   1.997       .  S
O907       Cr922   2.038       .  S
O907        C908   1.271       .  A
C908        O909   1.258       .  A
C908       C2777   1.491       .  S
O909       Cr923   1.963       .  S
O910       Cr923   2.007       .  S
O910        C911   1.267       .  A
C911       C1265   1.471       .  S
O912       Cr921   1.995       .  S
O912        C920   1.263       .  A
O913       Cr921   1.955       .  S
O913        C914   1.257       .  A
C914        O915   1.275       .  A
C914       C1449   1.477       .  S
O915       Cr922   2.047       .  S
O916       Cr922   1.985       .  S
O916        C917   1.263       .  A
C917        O918   1.268       .  A
C917       C2009   1.482       .  S
O918       Cr923   2.005       .  S
O919       Cr923   1.991       .  S
O919        C920   1.261       .  A
C920       C1321   1.474       .  S
Cr921       O924   1.759       .  S
Cr922       O924   1.772       .  S
Cr923       O924   1.767       .  S
O925       Cr943   1.969       .  S
O925        C933   1.262       .  A
O926       Cr943   1.992       .  S
O926        C927   1.260       .  A
C927        O928   1.262       .  A
C927       C1217   1.474       .  S
O928       Cr944   2.008       .  S
O929       Cr944   2.028       .  S
O929        C930   1.270       .  A
C930        O931   1.259       .  A
C930       C2369   1.489       .  S
O931       Cr945   1.965       .  S
O932       Cr945   2.007       .  S
O932        C933   1.268       .  A
C933       C1233   1.474       .  S
O934       Cr943   1.988       .  S
O934        C942   1.260       .  A
O935       Cr943   1.957       .  S
O935        C936   1.258       .  A
C936        O937   1.275       .  A
C936       C1185   1.477       .  S
O937       Cr944   2.047       .  S
O938       Cr944   1.991       .  S
O938        C939   1.264       .  A
C939        O940   1.266       .  A
C939       C1545   1.481       .  S
O940       Cr945   1.993       .  S
O941       Cr945   1.999       .  S
O941        C942   1.262       .  A
C942       C1201   1.478       .  S
Cr943       O946   1.757       .  S
Cr944       O946   1.779       .  S
Cr945       O946   1.767       .  S
O947       Cr965   1.982       .  S
O947        C955   1.257       .  A
O948       Cr965   1.957       .  S
O948        C949   1.259       .  A
C949        O950   1.277       .  A
C949       C1225   1.477       .  S
O950       Cr966   2.050       .  S
O951       Cr966   2.010       .  S
O951        C952   1.268       .  A
C952        O953   1.264       .  A
C952       C1281   1.493       .  S
O953       Cr967   1.989       .  S
O954       Cr967   1.997       .  S
O954        C955   1.259       .  A
C955       C1177   1.474       .  S
O956       Cr965   1.977       .  S
O956        C964   1.263       .  A
O957       Cr965   1.983       .  S
O957        C958   1.255       .  A
C958        O959   1.265       .  A
C958       C1153   1.479       .  S
O959       Cr966   2.024       .  S
O960       Cr966   2.034       .  S
O960        C961   1.272       .  A
C961        O962   1.260       .  A
C961       C1689   1.491       .  S
O962       Cr967   1.963       .  S
O963       Cr967   2.007       .  S
O963        C964   1.271       .  A
C964       C1137   1.478       .  S
Cr965       O968   1.764       .  S
Cr966       O968   1.776       .  S
Cr967       O968   1.766       .  S
O969       Cr987   1.985       .  S
O969        C977   1.264       .  A
O970       Cr987   1.996       .  S
O970        C971   1.261       .  A
C971        O972   1.260       .  A
C971       C1129   1.467       .  S
O972       Cr988   1.993       .  S
O973       Cr988   2.015       .  S
O973        C974   1.267       .  A
C974        O975   1.260       .  A
C974       C2585   1.486       .  S
O975       Cr989   1.972       .  S
O976       Cr989   2.019       .  S
O976        C977   1.270       .  A
C977       C1105   1.490       .  S
O978       Cr987   1.982       .  S
O978        C986   1.261       .  A
O979       Cr987   1.978       .  S
O979        C980   1.259       .  A
C980        O981   1.269       .  A
C980       C1193   1.474       .  S
O981       Cr988   2.027       .  S
O982       Cr988   1.987       .  S
O982        C983   1.264       .  A
C983        O984   1.270       .  A
C983       C1257   1.493       .  S
O984       Cr989   2.017       .  S
O985       Cr989   1.995       .  S
O985        C986   1.261       .  A
C986       C1169   1.473       .  S
Cr987       O990   1.765       .  S
Cr988       O990   1.777       .  S
Cr989       O990   1.773       .  S
O991      Cr1009   1.974       .  S
O991        C999   1.262       .  A
O992      Cr1009   1.999       .  S
O992        C993   1.257       .  A
C993        O994   1.263       .  A
C993       C1089   1.480       .  S
O994      Cr1010   2.014       .  S
O995      Cr1010   2.022       .  S
O995        C996   1.268       .  A
C996        O997   1.264       .  A
C996       C1625   1.495       .  S
O997      Cr1011   1.986       .  S
O998      Cr1011   2.004       .  S
O998        C999   1.269       .  A
C999       C1145   1.476       .  S
O1000     Cr1009   1.983       .  S
O1000      C1008   1.259       .  A
O1001     Cr1009   1.958       .  S
O1001      C1002   1.256       .  A
C1002      O1003   1.274       .  A
C1002      C1073   1.468       .  S
O1003     Cr1010   2.042       .  S
O1004     Cr1010   2.010       .  S
O1004      C1005   1.269       .  A
C1005      O1006   1.267       .  A
C1005      C2505   1.492       .  S
O1006     Cr1011   1.994       .  S
O1007     Cr1011   2.013       .  S
O1007      C1008   1.265       .  A
C1008      C1113   1.481       .  S
Cr1009     O1012   1.766       .  S
Cr1010     O1012   1.776       .  S
Cr1011     O1012   1.764       .  S
O1013     Cr1031   1.966       .  S
O1013      C1021   1.263       .  A
O1014     Cr1031   1.994       .  S
O1014      C1015   1.259       .  A
C1015      O1016   1.261       .  A
C1015      C1121   1.473       .  S
O1016     Cr1032   2.004       .  S
O1017     Cr1032   2.009       .  S
O1017      C1018   1.267       .  A
C1018      O1019   1.261       .  A
C1018      C1513   1.483       .  S
O1019     Cr1033   1.974       .  S
O1020     Cr1033   2.034       .  S
O1020      C1021   1.273       .  A
C1021      C1209   1.488       .  S
O1022     Cr1031   1.982       .  S
O1022      C1030   1.258       .  A
O1023     Cr1031   1.962       .  S
O1023      C1024   1.259       .  A
C1024      O1025   1.273       .  A
C1024      C1081   1.476       .  S
O1025     Cr1032   2.037       .  S
O1026     Cr1032   1.983       .  S
O1026      C1027   1.263       .  A
C1027      O1028   1.270       .  A
C1027      C1369   1.485       .  S
O1028     Cr1033   2.009       .  S
O1029     Cr1033   1.994       .  S
O1029      C1030   1.259       .  A
C1030      C1065   1.472       .  S
Cr1031     O1034   1.760       .  S
Cr1032     O1034   1.777       .  S
Cr1033     O1034   1.774       .  S
O1035     Cr1053   1.972       .  S
O1035      C1043   1.261       .  A
O1036     Cr1053   2.006       .  S
O1036      C1037   1.262       .  A
C1037      O1038   1.264       .  A
C1037      C1097   1.484       .  S
O1038     Cr1054   2.009       .  S
O1039     Cr1054   2.020       .  S
O1039      C1040   1.268       .  A
C1040      O1041   1.260       .  A
C1040      C1425   1.489       .  S
O1041     Cr1055   1.981       .  S
O1042     Cr1055   2.016       .  S
O1042      C1043   1.268       .  A
C1043      C1057   1.482       .  S
O1044     Cr1053   1.985       .  S
O1044      C1052   1.261       .  A
O1045     Cr1053   1.969       .  S
O1045      C1046   1.257       .  A
C1046      O1047   1.274       .  A
C1046      C1161   1.485       .  S
O1047     Cr1054   2.047       .  S
O1048     Cr1054   2.004       .  S
O1048      C1049   1.270       .  A
C1049      O1050   1.271       .  A
C1049      C2345   1.496       .  S
O1050     Cr1055   2.010       .  S
O1051     Cr1055   1.982       .  S
O1051      C1052   1.259       .  A
C1052      C1241   1.463       .  S
Cr1053     O1056   1.766       .  S
Cr1054     O1056   1.771       .  S
Cr1055     O1056   1.770       .  S
C1057      C1058   1.407       .  A
C1057      C1062   1.410       .  A
C1058      C1059   1.393       .  A
C1058      H1067   1.083       .  S
C1059      C1060   1.399       .  A
C1059      H1068   1.084       .  S
C1060      C1066   1.398       .  A
C1060      C1061   1.413       .  A
C1061      C1063   1.407       .  A
C1061      C1062   1.407       .  A
C1062      H1069   1.084       .  S
C1063      C1064   1.403       .  A
C1063      H1070   1.084       .  S
C1064      C1065   1.403       .  A
C1064      H1071   1.083       .  S
C1065      C1066   1.404       .  A
C1066      H1072   1.086       .  S
C1073      C1074   1.402       .  A
C1073      C1078   1.407       .  A
C1074      C1075   1.397       .  A
C1074      H1083   1.084       .  S
C1075      C1076   1.402       .  A
C1075      H1084   1.084       .  S
C1076      C1082   1.402       .  A
C1076      C1077   1.414       .  A
C1077      C1079   1.405       .  A
C1077      C1078   1.406       .  A
C1078      H1085   1.085       .  S
C1079      C1080   1.401       .  A
C1079      H1086   1.084       .  S
C1080      C1081   1.404       .  A
C1080      H1087   1.083       .  S
C1081      C1082   1.406       .  A
C1082      H1088   1.085       .  S
C1089      C1090   1.404       .  A
C1089      C1094   1.408       .  A
C1090      C1091   1.399       .  A
C1090      H1099   1.083       .  S
C1091      C1092   1.403       .  A
C1091      H1100   1.084       .  S
C1092      C1098   1.410       .  A
C1092      C1093   1.415       .  A
C1093      C1095   1.405       .  A
C1093      C1094   1.413       .  A
C1094      H1101   1.085       .  S
C1095      C1096   1.403       .  A
C1095      H1102   1.084       .  S
C1096      C1097   1.405       .  A
C1096      H1103   1.083       .  S
C1097      C1098   1.407       .  A
C1098      H1104   1.085       .  S
C1105      C1106   1.408       .  A
C1105      C1110   1.407       .  A
C1106      C1107   1.401       .  A
C1106      H1115   1.083       .  S
C1107      C1108   1.402       .  A
C1107      H1116   1.084       .  S
C1108      C1114   1.413       .  A
C1108      C1109   1.416       .  A
C1109      C1111   1.399       .  A
C1109      C1110   1.407       .  A
C1110      H1117   1.085       .  S
C1111      C1112   1.395       .  A
C1111      H1118   1.084       .  S
C1112      C1113   1.407       .  A
C1112      H1119   1.084       .  S
C1113      C1114   1.405       .  A
C1114      H1120   1.084       .  S
C1121      C1122   1.404       .  A
C1121      C1126   1.406       .  A
C1122      C1123   1.395       .  A
C1122      H1131   1.084       .  S
C1123      C1124   1.400       .  A
C1123      H1132   1.084       .  S
C1124      C1130   1.403       .  A
C1124      C1125   1.416       .  A
C1125      C1127   1.405       .  A
C1125      C1126   1.410       .  A
C1126      H1133   1.084       .  S
C1127      C1128   1.401       .  A
C1127      H1134   1.083       .  S
C1128      C1129   1.403       .  A
C1128      H1135   1.083       .  S
C1129      C1130   1.401       .  A
C1130      H1136   1.085       .  S
C1137      C1138   1.406       .  A
C1137      C1142   1.405       .  A
C1138      C1139   1.400       .  A
C1138      H1147   1.083       .  S
C1139      C1140   1.403       .  A
C1139      H1148   1.084       .  S
C1140      C1146   1.404       .  A
C1140      C1141   1.413       .  A
C1141      C1143   1.399       .  A
C1141      C1142   1.397       .  A
C1142      H1149   1.085       .  S
C1143      C1144   1.392       .  A
C1143      H1150   1.084       .  S
C1144      C1145   1.406       .  A
C1144      H1151   1.083       .  S
C1145      C1146   1.407       .  A
C1146      H1152   1.085       .  S
C1153      C1154   1.406       .  A
C1153      C1158   1.408       .  A
C1154      C1155   1.397       .  A
C1154      H1163   1.084       .  S
C1155      C1156   1.401       .  A
C1155      H1164   1.084       .  S
C1156      C1162   1.407       .  A
C1156      C1157   1.415       .  A
C1157      C1159   1.405       .  A
C1157      C1158   1.414       .  A
C1158      H1165   1.084       .  S
C1159      C1160   1.404       .  A
C1159      H1166   1.084       .  S
C1160      C1161   1.405       .  A
C1160      H1167   1.083       .  S
C1161      C1162   1.408       .  A
C1162      H1168   1.085       .  S
C1169      C1170   1.404       .  A
C1169      C1174   1.401       .  A
C1170      C1171   1.406       .  A
C1170      H1179   1.083       .  S
C1171      C1172   1.407       .  A
C1171      H1180   1.084       .  S
C1172      C1178   1.411       .  A
C1172      C1173   1.415       .  A
C1173      C1175   1.396       .  A
C1173      C1174   1.394       .  A
C1174      H1181   1.086       .  S
C1175      C1176   1.387       .  A
C1175      H1182   1.085       .  S
C1176      C1177   1.406       .  A
C1176      H1183   1.083       .  S
C1177      C1178   1.408       .  A
C1178      H1184   1.084       .  S
C1185      C1186   1.404       .  A
C1185      C1190   1.406       .  A
C1186      C1187   1.402       .  A
C1186      H1195   1.083       .  S
C1187      C1188   1.405       .  A
C1187      H1196   1.084       .  S
C1188      C1194   1.409       .  A
C1188      C1189   1.414       .  A
C1189      C1191   1.402       .  A
C1189      C1190   1.402       .  A
C1190      H1197   1.085       .  S
C1191      C1192   1.396       .  A
C1191      H1198   1.084       .  S
C1192      C1193   1.402       .  A
C1192      H1199   1.084       .  S
C1193      C1194   1.407       .  A
C1194      H1200   1.084       .  S
C1201      C1202   1.405       .  A
C1201      C1206   1.403       .  A
C1202      C1203   1.407       .  A
C1202      H1211   1.083       .  S
C1203      C1204   1.408       .  A
C1203      H1212   1.084       .  S
C1204      C1210   1.413       .  A
C1204      C1205   1.413       .  A
C1205      C1207   1.398       .  A
C1205      C1206   1.399       .  A
C1206      H1213   1.086       .  S
C1207      C1208   1.391       .  A
C1207      H1214   1.084       .  S
C1208      C1209   1.408       .  A
C1208      H1215   1.083       .  S
C1209      C1210   1.413       .  A
C1210      H1216   1.084       .  S
C1217      C1218   1.404       .  A
C1217      C1222   1.408       .  A
C1218      C1219   1.393       .  A
C1218      H1227   1.084       .  S
C1219      C1220   1.399       .  A
C1219      H1228   1.084       .  S
C1220      C1226   1.402       .  A
C1220      C1221   1.415       .  A
C1221      C1223   1.407       .  A
C1221      C1222   1.413       .  A
C1222      H1229   1.085       .  S
C1223      C1224   1.405       .  A
C1223      H1230   1.084       .  S
C1224      C1225   1.405       .  A
C1224      H1231   1.083       .  S
C1225      C1226   1.404       .  A
C1226      H1232   1.086       .  S
C1233      C1234   1.405       .  A
C1233      C1238   1.408       .  A
C1234      C1235   1.393       .  A
C1234      H1243   1.083       .  S
C1235      C1236   1.400       .  A
C1235      H1244   1.084       .  S
C1236      C1242   1.396       .  A
C1236      C1237   1.414       .  A
C1237      C1239   1.405       .  A
C1237      C1238   1.401       .  A
C1238      H1245   1.084       .  S
C1239      C1240   1.399       .  A
C1239      H1246   1.084       .  S
C1240      C1241   1.402       .  A
C1240      H1247   1.083       .  S
C1241      C1242   1.401       .  A
C1242      H1248   1.086       .  S
C1249      C1250   1.408       .  A
C1249      C1254   1.407       .  A
C1250      C1251   1.394       .  A
C1250      H1259   1.084       .  S
C1251      C1252   1.399   1_545  A
C1251      H1260   1.084   1_545  S
C1252      C1258   1.407       .  A
C1252      C1253   1.416       .  A
C1253      C1255   1.403       .  A
C1253      C1254   1.416   1_565  A
C1254      H1261   1.084       .  S
C1255      C1256   1.404       .  A
C1255      H1262   1.083       .  S
C1256      C1257   1.409       .  A
C1256      H1263   1.083       .  S
C1257      C1258   1.408       .  A
C1258      H1264   1.084       .  S
C1265      C1266   1.405       .  A
C1265      C1270   1.403       .  A
C1266      C1267   1.396       .  A
C1266      H1275   1.083       .  S
C1267      C1268   1.401       .  A
C1267      H1276   1.084       .  S
C1268      C1274   1.400       .  A
C1268      C1269   1.416       .  A
C1269      C1271   1.400       .  A
C1269      C1270   1.396       .  A
C1270      H1277   1.085       .  S
C1271      C1272   1.392       .  A
C1271      H1278   1.084       .  S
C1272      C1273   1.401       .  A
C1272      H1279   1.084       .  S
C1273      C1274   1.399       .  A
C1274      H1280   1.085       .  S
C1281      C1282   1.411       .  A
C1281      C1286   1.408       .  A
C1282      C1283   1.397       .  A
C1282      H1291   1.083       .  S
C1283      C1284   1.400       .  A
C1283      H1292   1.084       .  S
C1284      C1290   1.410   1_565  A
C1284      C1285   1.416       .  A
C1285      C1287   1.402       .  A
C1285      C1286   1.413       .  A
C1286      H1293   1.084       .  S
C1287      C1288   1.400   1_565  A
C1287      H1294   1.084       .  S
C1288      C1289   1.408       .  A
C1288      H1295   1.083       .  S
C1289      C1290   1.408       .  A
C1290      H1296   1.084       .  S
C1297      C1298   1.407       .  A
C1297      C1302   1.406       .  A
C1298      C1299   1.396       .  A
C1298      H1307   1.083       .  S
C1299      C1300   1.401       .  A
C1299      H1308   1.084       .  S
C1300      C1306   1.404       .  A
C1300      C1301   1.414       .  A
C1301      C1303   1.401       .  A
C1301      C1302   1.404       .  A
C1302      H1309   1.084       .  S
C1303      C1304   1.397       .  A
C1303      H1310   1.084       .  S
C1304      C1305   1.408       .  A
C1304      H1311   1.083       .  S
C1305      C1306   1.405       .  A
C1306      H1312   1.084       .  S
C1313      C1314   1.404       .  A
C1313      C1318   1.406       .  A
C1314      C1315   1.393       .  A
C1314      H1323   1.084       .  S
C1315      C1316   1.399       .  A
C1315      H1324   1.084       .  S
C1316      C1322   1.401       .  A
C1316      C1317   1.416       .  A
C1317      C1319   1.406       .  A
C1317      C1318   1.412       .  A
C1318      H1325   1.084       .  S
C1319      C1320   1.404       .  A
C1319      H1326   1.084       .  S
C1320      C1321   1.404       .  A
C1320      H1327   1.083       .  S
C1321      C1322   1.402       .  A
C1322      H1328   1.085       .  S
C1329      C1330   1.406       .  A
C1329      C1334   1.406       .  A
C1330      C1331   1.407       .  A
C1330      H1339   1.083       .  S
C1331      C1332   1.407       .  A
C1331      H1340   1.084       .  S
C1332      C1338   1.415       .  A
C1332      C1333   1.415       .  A
C1333      C1335   1.400       .  A
C1333      C1334   1.404       .  A
C1334      H1341   1.085       .  S
C1335      C1336   1.395       .  A
C1335      H1342   1.084       .  S
C1336      C1337   1.403       .  A
C1336      H1343   1.084       .  S
C1337      C1338   1.410       .  A
C1338      H1344   1.084       .  S
C1345      C1346   1.404       .  A
C1345      C1350   1.405       .  A
C1346      C1347   1.402       .  A
C1346      H1355   1.083       .  S
C1347      C1348   1.405       .  A
C1347      H1356   1.083       .  S
C1348      C1354   1.413       .  A
C1348      C1349   1.416       .  A
C1349      C1351   1.402       .  A
C1349      C1350   1.410       .  A
C1350      H1357   1.084       .  S
C1351      C1352   1.399       .  A
C1351      H1358   1.083       .  S
C1352      C1353   1.406       .  A
C1352      H1359   1.084       .  S
C1353      C1354   1.407       .  A
C1354      H1360   1.084       .  S
C1361      C1362   1.408       .  A
C1361      C1366   1.409       .  A
C1362      C1363   1.393       .  A
C1362      H1371   1.083       .  S
C1363      C1364   1.398       .  A
C1363      H1372   1.084       .  S
C1364      C1370   1.403       .  A
C1364      C1365   1.415       .  A
C1365      C1367   1.405       .  A
C1365      C1366   1.413       .  A
C1366      H1373   1.084       .  S
C1367      C1368   1.404       .  A
C1367      H1374   1.084       .  S
C1368      C1369   1.408       .  A
C1368      H1375   1.083       .  S
C1369      C1370   1.404       .  A
C1370      H1376   1.085       .  S
C1377      C1378   1.406       .  A
C1377      C1382   1.402       .  A
C1378      C1379   1.399       .  A
C1378      H1387   1.083       .  S
C1379      C1380   1.402       .  A
C1379      H1388   1.084       .  S
C1380      C1386   1.412       .  A
C1380      C1381   1.418       .  A
C1381      C1383   1.399       .  A
C1381      C1382   1.408       .  A
C1382      H1389   1.085       .  S
C1383      C1384   1.395       .  A
C1383      H1390   1.084       .  S
C1384      C1385   1.408       .  A
C1384      H1391   1.084       .  S
C1385      C1386   1.404       .  A
C1386      H1392   1.084       .  S
C1393      C1394   1.404       .  A
C1393      C1398   1.405       .  A
C1394      C1395   1.402       .  A
C1394      H1403   1.083       .  S
C1395      C1396   1.405       .  A
C1395      H1404   1.084       .  S
C1396      C1402   1.410       .  A
C1396      C1397   1.415       .  A
C1397      C1399   1.403       .  A
C1397      C1398   1.407       .  A
C1398      H1405   1.085       .  S
C1399      C1400   1.398       .  A
C1399      H1406   1.084       .  S
C1400      C1401   1.402       .  A
C1400      H1407   1.084       .  S
C1401      C1402   1.406       .  A
C1402      H1408   1.085       .  S
C1409      C1410   1.406       .  A
C1409      C1414   1.410       .  A
C1410      C1411   1.392       .  A
C1410      H1419   1.083       .  S
C1411      C1412   1.399       .  A
C1411      H1420   1.084       .  S
C1412      C1418   1.397       .  A
C1412      C1413   1.413       .  A
C1413      C1415   1.407       .  A
C1413      C1414   1.408       .  A
C1414      H1421   1.084       .  S
C1415      C1416   1.404       .  A
C1415      H1422   1.084       .  S
C1416      C1417   1.403       .  A
C1416      H1423   1.083       .  S
C1417      C1418   1.403       .  A
C1418      H1424   1.086       .  S
C1425      C1426   1.407       .  A
C1425      C1430   1.409       .  A
C1426      C1427   1.401       .  A
C1426      H1435   1.083       .  S
C1427      C1428   1.403       .  A
C1427      H1436   1.084       .  S
C1428      C1434   1.411       .  A
C1428      C1429   1.414       .  A
C1429      C1431   1.401       .  A
C1429      C1430   1.409       .  A
C1430      H1437   1.084       .  S
C1431      C1432   1.399       .  A
C1431      H1438   1.084       .  S
C1432      C1433   1.409       .  A
C1432      H1439   1.083       .  S
C1433      C1434   1.409       .  A
C1434      H1440   1.084       .  S
C1441      C1442   1.404       .  A
C1441      C1446   1.407       .  A
C1442      C1443   1.395       .  A
C1442      H1451   1.084       .  S
C1443      C1444   1.401       .  A
C1443      H1452   1.084       .  S
C1444      C1450   1.403       .  A
C1444      C1445   1.415       .  A
C1445      C1447   1.406       .  A
C1445      C1446   1.411       .  A
C1446      H1453   1.085       .  S
C1447      C1448   1.403       .  A
C1447      H1454   1.084       .  S
C1448      C1449   1.404       .  A
C1448      H1455   1.083       .  S
C1449      C1450   1.406       .  A
C1450      H1456   1.085       .  S
C1457      C1458   1.403       .  A
C1457      C1462   1.407       .  A
C1458      C1459   1.398       .  A
C1458      H1467   1.084       .  S
C1459      C1460   1.403       .  A
C1459      H1468   1.084       .  S
C1460      C1466   1.404       .  A
C1460      C1461   1.414       .  A
C1461      C1463   1.405       .  A
C1461      C1462   1.406       .  A
C1462      H1469   1.085       .  S
C1463      C1464   1.400       .  A
C1463      H1470   1.084       .  S
C1464      C1465   1.403       .  A
C1464      H1471   1.083       .  S
C1465      C1466   1.406       .  A
C1466      H1472   1.085       .  S
C1473      C1474   1.407       .  A
C1473      C1478   1.406       .  A
C1474      C1475   1.387       .  A
C1474      H1483   1.084       .  S
C1475      C1476   1.395       .  A
C1475      H1484   1.084       .  S
C1476      C1482   1.396       .  A
C1476      C1477   1.416       .  A
C1477      C1479   1.405       .  A
C1477      C1478   1.411       .  A
C1478      H1485   1.084       .  S
C1479      C1480   1.404       .  A
C1479      H1486   1.084       .  S
C1480      C1481   1.404       .  A
C1480      H1487   1.083       .  S
C1481      C1482   1.401       .  A
C1482      H1488   1.086       .  S
C1489      C1490   1.406       .  A
C1489      C1494   1.402       .  A
C1490      C1491   1.398       .  A
C1490      H1499   1.083       .  S
C1491      C1492   1.403       .  A
C1491      H1500   1.084       .  S
C1492      C1498   1.401       .  A
C1492      C1493   1.414       .  A
C1493      C1495   1.398       .  A
C1493      C1494   1.395       .  A
C1494      H1501   1.085       .  S
C1495      C1496   1.391       .  A
C1495      H1502   1.084       .  S
C1496      C1497   1.405       .  A
C1496      H1503   1.083       .  S
C1497      C1498   1.406       .  A
C1498      H1504   1.085       .  S
C1505      C1506   1.407       .  A
C1505      C1510   1.406       .  A
C1506      C1507   1.394       .  A
C1506      H1515   1.083       .  S
C1507      C1508   1.400       .  A
C1507      H1516   1.084       .  S
C1508      C1514   1.403       .  A
C1508      C1509   1.414       .  A
C1509      C1511   1.403       .  A
C1509      C1510   1.408       .  A
C1510      H1517   1.084       .  S
C1511      C1512   1.400       .  A
C1511      H1518   1.084       .  S
C1512      C1513   1.406       .  A
C1512      H1519   1.083       .  S
C1513      C1514   1.406       .  A
C1514      H1520   1.084       .  S
C1521      C1522   1.406       .  A
C1521      C1526   1.406       .  A
C1522      C1523   1.392       .  A
C1522      H1531   1.083       .  S
C1523      C1524   1.400       .  A
C1523      H1532   1.084       .  S
C1524      C1530   1.396       .  A
C1524      C1525   1.413       .  A
C1525      C1527   1.402       .  A
C1525      C1526   1.400       .  A
C1526      H1533   1.084       .  S
C1527      C1528   1.397       .  A
C1527      H1534   1.084       .  S
C1528      C1529   1.405       .  A
C1528      H1535   1.083       .  S
C1529      C1530   1.404       .  A
C1530      H1536   1.084       .  S
C1537      C1538   1.407       .  A
C1537      C1542   1.405       .  A
C1538      C1539   1.403       .  A
C1538      H1547   1.083       .  S
C1539      C1540   1.405       .  A
C1539      H1548   1.083       .  S
C1540      C1546   1.411       .  A
C1540      C1541   1.414       .  A
C1541      C1543   1.398       .  A
C1541      C1542   1.400       .  A
C1542      H1549   1.084       .  S
C1543      C1544   1.391       .  A
C1543      H1550   1.084       .  S
C1544      C1545   1.406       .  A
C1544      H1551   1.083       .  S
C1545      C1546   1.409       .  A
C1546      H1552   1.084       .  S
C1553      C1554   1.407       .  A
C1553      C1558   1.405       .  A
C1554      C1555   1.404       .  A
C1554      H1563   1.083       .  S
C1555      C1556   1.405       .  A
C1555      H1564   1.083       .  S
C1556      C1562   1.411       .  A
C1556      C1557   1.415       .  A
C1557      C1559   1.399       .  A
C1557      C1558   1.399       .  A
C1558      H1565   1.084       .  S
C1559      C1560   1.391       .  A
C1559      H1566   1.084       .  S
C1560      C1561   1.403       .  A
C1560      H1567   1.084       .  S
C1561      C1562   1.407       .  A
C1562      H1568   1.084       .  S
C1569      C1570   1.404       .  A
C1569      C1574   1.399       .  A
C1570      C1571   1.400       .  A
C1570      H1579   1.083       .  S
C1571      C1572   1.404       .  A
C1571      H1580   1.084       .  S
C1572      C1578   1.408       .  A
C1572      C1573   1.417       .  A
C1573      C1575   1.397       .  A
C1573      C1574   1.398       .  A
C1574      H1581   1.085       .  S
C1575      C1576   1.390       .  A
C1575      H1582   1.084       .  S
C1576      C1577   1.402       .  A
C1576      H1583   1.081       .  S
C1577      C1578   1.403       .  A
C1578      H1584   1.085       .  S
C1585      C1586   1.406       .  A
C1585      C1590   1.409       .  A
C1586      C1587   1.395       .  A
C1586      H1595   1.084       .  S
C1587      C1588   1.399       .  A
C1587      H1596   1.084       .  S
C1588      C1594   1.406       .  A
C1588      C1589   1.416       .  A
C1589      C1591   1.405       .  A
C1589      C1590   1.415       .  A
C1590      H1597   1.084       .  S
C1591      C1592   1.404       .  A
C1591      H1598   1.084       .  S
C1592      C1593   1.405       .  A
C1592      H1599   1.083       .  S
C1593      C1594   1.403       .  A
C1594      H1600   1.085       .  S
C1601      C1602   1.405       .  A
C1601      C1606   1.402       .  A
C1602      C1603   1.404       .  A
C1602      H1611   1.083       .  S
C1603      C1604   1.405       .  A
C1603      H1612   1.084       .  S
C1604      C1610   1.414       .  A
C1604      C1605   1.417       .  A
C1605      C1607   1.399       .  A
C1605      C1606   1.406       .  A
C1606      H1613   1.085       .  S
C1607      C1608   1.395       .  A
C1607      H1614   1.084       .  S
C1608      C1609   1.405       .  A
C1608      H1615   1.084       .  S
C1609      C1610   1.408       .  A
C1610      H1616   1.084       .  S
C1617      C1618   1.408       .  A
C1617      C1622   1.411       .  A
C1618      C1619   1.406       .  A
C1618      H1627   1.083       .  S
C1619      C1620   1.407   1_655  A
C1619      H1628   1.083       .  S
C1620      C1626   1.415       .  A
C1620      C1621   1.412   1_455  A
C1621      C1623   1.401   1_655  A
C1621      C1622   1.407       .  A
C1622      H1629   1.084       .  S
C1623      C1624   1.397       .  A
C1623      H1630   1.084       .  S
C1624      C1625   1.408       .  A
C1624      H1631   1.083       .  S
C1625      C1626   1.414       .  A
C1626      H1632   1.084       .  S
C1633      C1634   1.401       .  A
C1633      C1638   1.402       .  A
C1634      C1635   1.400       .  A
C1634      H1643   1.083       .  S
C1635      C1636   1.405       .  A
C1635      H1644   1.084       .  S
C1636      C1642   1.404       .  A
C1636      C1637   1.414       .  A
C1637      C1639   1.400       .  A
C1637      C1638   1.399       .  A
C1638      H1645   1.085       .  S
C1639      C1640   1.394       .  A
C1639      H1646   1.084       .  S
C1640      C1641   1.407       .  A
C1640      H1647   1.083       .  S
C1641      C1642   1.407       .  A
C1642      H1648   1.084       .  S
C1649      C1650   1.405       .  A
C1649      C1654   1.402       .  A
C1650      C1651   1.405       .  A
C1650      H1659   1.083       .  S
C1651      C1652   1.406       .  A
C1651      H1660   1.084       .  S
C1652      C1658   1.416       .  A
C1652      C1653   1.416       .  A
C1653      C1655   1.398       .  A
C1653      C1654   1.404       .  A
C1654      H1661   1.085       .  S
C1655      C1656   1.393       .  A
C1655      H1662   1.084       .  S
C1656      C1657   1.407       .  A
C1656      H1663   1.084       .  S
C1657      C1658   1.409       .  A
C1658      H1664   1.084       .  S
C1665      C1666   1.404       .  A
C1665      C1670   1.402       .  A
C1666      C1667   1.404       .  A
C1666      H1675   1.083       .  S
C1667      C1668   1.406       .  A
C1667      H1676   1.083       .  S
C1668      C1674   1.413       .  A
C1668      C1669   1.416       .  A
C1669      C1671   1.400       .  A
C1669      C1670   1.405       .  A
C1670      H1677   1.085       .  S
C1671      C1672   1.395       .  A
C1671      H1678   1.084       .  S
C1672      C1673   1.403       .  A
C1672      H1679   1.083       .  S
C1673      C1674   1.408       .  A
C1674      H1680   1.084       .  S
C1681      C1682   1.408       .  A
C1681      C1686   1.405       .  A
C1682      C1683   1.407       .  A
C1682      H1691   1.083       .  S
C1683      C1684   1.407   1_655  A
C1683      H1692   1.083   1_655  S
C1684      C1690   1.417       .  A
C1684      C1685   1.414   1_455  A
C1685      C1687   1.397   1_655  A
C1685      C1686   1.403       .  A
C1686      H1693   1.085       .  S
C1687      C1688   1.392       .  A
C1687      H1694   1.084       .  S
C1688      C1689   1.408       .  A
C1688      H1695   1.083       .  S
C1689      C1690   1.412       .  A
C1690      H1696   1.084       .  S
C1697      C1698   1.406       .  A
C1697      C1702   1.410       .  A
C1698      C1699   1.396       .  A
C1698      H1707   1.083       .  S
C1699      C1700   1.402       .  A
C1699      H1708   1.084       .  S
C1700      C1706   1.401       .  A
C1700      C1701   1.413       .  A
C1701      C1703   1.406       .  A
C1701      C1702   1.405       .  A
C1702      H1709   1.084       .  S
C1703      C1704   1.401       .  A
C1703      H1710   1.084       .  S
C1704      C1705   1.402       .  A
C1704      H1711   1.083       .  S
C1705      C1706   1.405       .  A
C1706      H1712   1.085       .  S
C1713      C1714   1.408       .  A
C1713      C1718   1.405       .  A
C1714      C1715   1.403       .  A
C1714      H1723   1.083       .  S
C1715      C1716   1.404       .  A
C1715      H1724   1.084       .  S
C1716      C1722   1.413       .  A
C1716      C1717   1.416       .  A
C1717      C1719   1.398       .  A
C1717      C1718   1.402       .  A
C1718      H1725   1.085       .  S
C1719      C1720   1.392       .  A
C1719      H1726   1.084       .  S
C1720      C1721   1.405       .  A
C1720      H1727   1.084       .  S
C1721      C1722   1.406       .  A
C1722      H1728   1.084       .  S
C1729      C1730   1.405       .  A
C1729      C1734   1.402       .  A
C1730      C1731   1.404       .  A
C1730      H1739   1.083       .  S
C1731      C1732   1.405       .  A
C1731      H1740   1.084       .  S
C1732      C1738   1.414       .  A
C1732      C1733   1.417       .  A
C1733      C1735   1.399       .  A
C1733      C1734   1.405       .  A
C1734      H1741   1.085       .  S
C1735      C1736   1.394       .  A
C1735      H1742   1.084       .  S
C1736      C1737   1.405       .  A
C1736      H1743   1.083       .  S
C1737      C1738   1.407       .  A
C1738      H1744   1.085       .  S
C1745      C1746   1.403       .  A
C1745      C1750   1.407       .  A
C1746      C1747   1.400       .  A
C1746      H1755   1.083       .  S
C1747      C1748   1.404       .  A
C1747      H1756   1.084       .  S
C1748      C1754   1.405       .  A
C1748      C1749   1.414       .  A
C1749      C1751   1.403       .  A
C1749      C1750   1.402       .  A
C1750      H1757   1.085       .  S
C1751      C1752   1.397       .  A
C1751      H1758   1.084       .  S
C1752      C1753   1.403       .  A
C1752      H1759   1.083       .  S
C1753      C1754   1.406       .  A
C1754      H1760   1.085       .  S
C1761      C1762   1.407       .  A
C1761      C1766   1.410       .  A
C1762      C1763   1.394       .  A
C1762      H1771   1.083       .  S
C1763      C1764   1.399       .  A
C1763      H1772   1.084       .  S
C1764      C1770   1.405       .  A
C1764      C1765   1.415       .  A
C1765      C1767   1.406       .  A
C1765      C1766   1.417       .  A
C1766      H1773   1.084       .  S
C1767      C1768   1.406       .  A
C1767      H1774   1.084       .  S
C1768      C1769   1.408       .  A
C1768      H1775   1.082       .  S
C1769      C1770   1.408       .  A
C1770      H1776   1.085       .  S
C1777      C1778   1.409       .  A
C1777      C1782   1.408       .  A
C1778      C1779   1.409       .  A
C1778      H1787   1.083       .  S
C1779      C1780   1.408       .  A
C1779      H1788   1.083       .  S
C1780      C1786   1.419       .  A
C1780      C1781   1.413       .  A
C1781      C1783   1.398       .  A
C1781      C1782   1.405       .  A
C1782      H1789   1.084       .  S
C1783      C1784   1.393       .  A
C1783      H1790   1.084       .  S
C1784      C1785   1.409       .  A
C1784      H1791   1.083       .  S
C1785      C1786   1.415       .  A
C1786      H1792   1.083       .  S
C1793      C1794   1.408       .  A
C1793      C1798   1.406       .  A
C1794      C1795   1.399       .  A
C1794      H1803   1.083       .  S
C1795      C1796   1.401       .  A
C1795      H1804   1.084       .  S
C1796      C1802   1.408       .  A
C1796      C1797   1.415       .  A
C1797      C1799   1.399       .  A
C1797      C1798   1.405       .  A
C1798      H1805   1.084       .  S
C1799      C1800   1.395       .  A
C1799      H1806   1.084       .  S
C1800      C1801   1.409       .  A
C1800      H1807   1.083       .  S
C1801      C1802   1.406       .  A
C1802      H1808   1.084       .  S
C1809      C1810   1.405       .  A
C1809      C1814   1.403       .  A
C1810      C1811   1.406       .  A
C1810      H1819   1.083       .  S
C1811      C1812   1.407       .  A
C1811      H1820   1.084       .  S
C1812      C1818   1.415       .  A
C1812      C1813   1.416       .  A
C1813      C1815   1.399       .  A
C1813      C1814   1.402       .  A
C1814      H1821   1.085       .  S
C1815      C1816   1.392       .  A
C1815      H1822   1.084       .  S
C1816      C1817   1.404       .  A
C1816      H1823   1.084       .  S
C1817      C1818   1.409       .  A
C1818      H1824   1.084       .  S
C1825      C1826   1.408       .  A
C1825      C1830   1.410       .  A
C1826      C1827   1.398   1_545  A
C1826      H1835   1.083       .  S
C1827      C1828   1.402       .  A
C1827      H1836   1.083       .  S
C1828      C1834   1.408       .  A
C1828      C1829   1.413       .  A
C1829      C1831   1.404       .  A
C1829      C1830   1.411   1_565  A
C1830      H1837   1.084       .  S
C1831      C1832   1.402       .  A
C1831      H1838   1.083       .  S
C1832      C1833   1.407       .  A
C1832      H1839   1.083       .  S
C1833      C1834   1.410       .  A
C1834      H1840   1.084       .  S
C1841      C1842   1.404       .  A
C1841      C1846   1.407       .  A
C1842      C1843   1.398       .  A
C1842      H1851   1.083       .  S
C1843      C1844   1.402       .  A
C1843      H1852   1.084       .  S
C1844      C1850   1.405       .  A
C1844      C1845   1.415       .  A
C1845      C1847   1.404       .  A
C1845      C1846   1.406       .  A
C1846      H1853   1.085       .  S
C1847      C1848   1.399       .  A
C1847      H1854   1.084       .  S
C1848      C1849   1.403       .  A
C1848      H1855   1.083       .  S
C1849      C1850   1.405       .  A
C1850      H1856   1.085       .  S
C1857      C1858   1.403       .  A
C1857      C1862   1.407       .  A
C1858      C1859   1.397       .  A
C1858      H1867   1.083       .  S
C1859      C1860   1.402       .  A
C1859      H1868   1.084       .  S
C1860      C1866   1.404       .  A
C1860      C1861   1.415       .  A
C1861      C1863   1.405       .  A
C1861      C1862   1.410       .  A
C1862      H1869   1.085       .  S
C1863      C1864   1.403       .  A
C1863      H1870   1.084       .  S
C1864      C1865   1.405       .  A
C1864      H1871   1.083       .  S
C1865      C1866   1.407       .  A
C1866      H1872   1.085       .  S
C1873      C1874   1.408       .  A
C1873      C1878   1.411       .  A
C1874      C1875   1.394       .  A
C1874      H1883   1.083       .  S
C1875      C1876   1.399   1_655  A
C1875      H1884   1.084   1_655  S
C1876      C1882   1.403       .  A
C1876      C1877   1.414   1_455  A
C1877      C1879   1.406   1_655  A
C1877      C1878   1.412       .  A
C1878      H1885   1.084       .  S
C1879      C1880   1.405       .  A
C1879      H1886   1.084       .  S
C1880      C1881   1.405       .  A
C1880      H1887   1.083       .  S
C1881      C1882   1.404       .  A
C1882      H1888   1.085       .  S
C1889      C1890   1.409       .  A
C1889      C1894   1.407       .  A
C1890      C1891   1.394       .  A
C1890      H1899   1.083       .  S
C1891      C1892   1.398   1_545  A
C1891      H1900   1.084   1_545  S
C1892      C1898   1.405       .  A
C1892      C1893   1.415   1_565  A
C1893      C1895   1.402   1_545  A
C1893      C1894   1.410       .  A
C1894      H1901   1.084       .  S
C1895      C1896   1.400       .  A
C1895      H1902   1.084       .  S
C1896      C1897   1.407       .  A
C1896      H1903   1.083       .  S
C1897      C1898   1.405       .  A
C1898      H1904   1.085       .  S
C1905      C1906   1.403       .  A
C1905      C1910   1.399       .  A
C1906      C1907   1.403       .  A
C1906      H1915   1.083       .  S
C1907      C1908   1.406       .  A
C1907      H1916   1.084       .  S
C1908      C1914   1.408       .  A
C1908      C1909   1.416       .  A
C1909      C1911   1.398       .  A
C1909      C1910   1.396       .  A
C1910      H1917   1.086       .  S
C1911      C1912   1.390       .  A
C1911      H1918   1.084       .  S
C1912      C1913   1.402       .  A
C1912      H1919   1.084       .  S
C1913      C1914   1.405       .  A
C1914      H1920   1.084       .  S
C1921      C1922   1.406       .  A
C1921      C1926   1.408       .  A
C1922      C1923   1.396       .  A
C1922      H1931   1.084       .  S
C1923      C1924   1.400       .  A
C1923      H1932   1.084       .  S
C1924      C1930   1.406       .  A
C1924      C1925   1.416       .  A
C1925      C1927   1.406       .  A
C1925      C1926   1.413       .  A
C1926      H1933   1.084       .  S
C1927      C1928   1.404       .  A
C1927      H1934   1.083       .  S
C1928      C1929   1.403       .  A
C1928      H1935   1.083       .  S
C1929      C1930   1.404       .  A
C1930      H1936   1.085       .  S
C1937      C1938   1.409       .  A
C1937      C1942   1.408       .  A
C1938      C1939   1.391       .  A
C1938      H1947   1.083       .  S
C1939      C1940   1.397       .  A
C1939      H1948   1.084       .  S
C1940      C1946   1.400       .  A
C1940      C1941   1.415       .  A
C1941      C1943   1.404       .  A
C1941      C1942   1.409       .  A
C1942      H1949   1.084       .  S
C1943      C1944   1.402       .  A
C1943      H1950   1.084       .  S
C1944      C1945   1.405       .  A
C1944      H1951   1.083       .  S
C1945      C1946   1.402       .  A
C1946      H1952   1.085       .  S
C1953      C1954   1.404       .  A
C1953      C1958   1.402       .  A
C1954      C1955   1.402       .  A
C1954      H1963   1.083       .  S
C1955      C1956   1.405       .  A
C1955      H1964   1.084       .  S
C1956      C1962   1.409       .  A
C1956      C1957   1.415       .  A
C1957      C1959   1.397       .  A
C1957      C1958   1.400       .  A
C1958      H1965   1.085       .  S
C1959      C1960   1.392       .  A
C1959      H1966   1.084       .  S
C1960      C1961   1.409       .  A
C1960      H1967   1.083       .  S
C1961      C1962   1.408       .  A
C1962      H1968   1.084       .  S
C1969      C1970   1.403       .  A
C1969      C1974   1.404       .  A
C1970      C1971   1.398       .  A
C1970      H1979   1.084       .  S
C1971      C1972   1.402       .  A
C1971      H1980   1.084       .  S
C1972      C1978   1.405       .  A
C1972      C1973   1.416       .  A
C1973      C1975   1.403       .  A
C1973      C1974   1.407       .  A
C1974      H1981   1.085       .  S
C1975      C1976   1.399       .  A
C1975      H1982   1.084       .  S
C1976      C1977   1.403       .  A
C1976      H1983   1.084       .  S
C1977      C1978   1.404       .  A
C1978      H1984   1.085       .  S
C1985      C1986   1.407       .  A
C1985      C1990   1.405       .  A
C1986      C1987   1.393       .  A
C1986      H1995   1.083       .  S
C1987      C1988   1.399       .  A
C1987      H1996   1.084       .  S
C1988      C1994   1.400       .  A
C1988      C1989   1.415       .  A
C1989      C1991   1.401       .  A
C1989      C1990   1.402       .  A
C1990      H1997   1.085       .  S
C1991      C1992   1.396       .  A
C1991      H1998   1.084       .  S
C1992      C1993   1.407       .  A
C1992      H1999   1.083       .  S
C1993      C1994   1.404       .  A
C1994      H2000   1.085       .  S
C2001      C2002   1.409       .  A
C2001      C2006   1.409       .  A
C2002      C2003   1.390       .  A
C2002      H2011   1.083       .  S
C2003      C2004   1.396   1_655  A
C2003      H2012   1.084   1_655  S
C2004      C2010   1.400       .  A
C2004      C2005   1.415   1_455  A
C2005      C2007   1.405   1_655  A
C2005      C2006   1.413       .  A
C2006      H2013   1.084       .  S
C2007      C2008   1.404       .  A
C2007      H2014   1.083       .  S
C2008      C2009   1.407       .  A
C2008      H2015   1.083       .  S
C2009      C2010   1.403       .  A
C2010      H2016   1.085       .  S
C2017      C2018   1.408       .  A
C2017      C2022   1.404       .  A
C2018      C2019   1.396       .  A
C2018      H2027   1.083       .  S
C2019      C2020   1.400       .  A
C2019      H2028   1.084       .  S
C2020      C2026   1.404       .  A
C2020      C2021   1.415       .  A
C2021      C2023   1.399       .  A
C2021      C2022   1.403       .  A
C2022      H2029   1.085       .  S
C2023      C2024   1.394       .  A
C2023      H2030   1.084       .  S
C2024      C2025   1.408       .  A
C2024      H2031   1.083       .  S
C2025      C2026   1.405       .  A
C2026      H2032   1.085       .  S
C2033      C2034   1.401       .  A
C2033      C2038   1.401       .  A
C2034      C2035   1.399       .  A
C2034      H2043   1.083       .  S
C2035      C2036   1.405       .  A
C2035      H2044   1.084       .  S
C2036      C2042   1.401       .  A
C2036      C2037   1.413       .  A
C2037      C2039   1.400       .  A
C2037      C2038   1.396       .  A
C2038      H2045   1.086       .  S
C2039      C2040   1.393       .  A
C2039      H2046   1.084       .  S
C2040      C2041   1.405       .  A
C2040      H2047   1.083       .  S
C2041      C2042   1.408       .  A
C2042      H2048   1.084       .  S
C2049      C2050   1.404       .  A
C2049      C2054   1.410       .  A
C2050      C2051   1.401       .  A
C2050      H2059   1.083       .  S
C2051      C2052   1.405       .  A
C2051      H2060   1.084       .  S
C2052      C2058   1.408       .  A
C2052      C2053   1.413       .  A
C2053      C2055   1.404       .  A
C2053      C2054   1.406       .  A
C2054      H2061   1.085       .  S
C2055      C2056   1.400       .  A
C2055      H2062   1.084       .  S
C2056      C2057   1.404       .  A
C2056      H2063   1.083       .  S
C2057      C2058   1.408       .  A
C2058      H2064   1.085       .  S
C2065      C2066   1.403       .  A
C2065      C2070   1.406       .  A
C2066      C2067   1.402       .  A
C2066      H2075   1.084       .  S
C2067      C2068   1.405       .  A
C2067      H2076   1.083       .  S
C2068      C2074   1.411       .  A
C2068      C2069   1.416       .  A
C2069      C2071   1.403       .  A
C2069      C2070   1.409       .  A
C2070      H2077   1.084       .  S
C2071      C2072   1.399       .  A
C2071      H2078   1.083       .  S
C2072      C2073   1.404       .  A
C2072      H2079   1.084       .  S
C2073      C2074   1.407       .  A
C2074      H2080   1.084       .  S
C2081      C2082   1.410       .  A
C2081      C2086   1.415       .  A
C2082      C2083   1.390       .  A
C2082      H2091   1.083       .  S
C2083      C2084   1.396       .  A
C2083      H2092   1.084       .  S
C2084      C2090   1.403       .  A
C2084      C2085   1.414       .  A
C2085      C2087   1.408       .  A
C2085      C2086   1.420       .  A
C2086      H2093   1.083       .  S
C2087      C2088   1.409       .  A
C2087      H2094   1.083       .  S
C2088      C2089   1.409       .  A
C2088      H2095   1.083       .  S
C2089      C2090   1.406       .  A
C2090      H2096   1.084       .  S
C2097      C2098   1.404       .  A
C2097      C2102   1.401       .  A
C2098      C2099   1.401       .  A
C2098      H2107   1.083       .  S
C2099      C2100   1.405       .  A
C2099      H2108   1.084       .  S
C2100      C2106   1.407       .  A
C2100      C2101   1.414       .  A
C2101      C2103   1.398       .  A
C2101      C2102   1.399       .  A
C2102      H2109   1.085       .  S
C2103      C2104   1.393       .  A
C2103      H2110   1.084       .  S
C2104      C2105   1.407       .  A
C2104      H2111   1.083       .  S
C2105      C2106   1.409       .  A
C2106      H2112   1.084       .  S
C2113      C2114   1.408       .  A
C2113      C2118   1.409       .  A
C2114      C2115   1.391       .  A
C2114      H2123   1.083       .  S
C2115      C2116   1.397       .  A
C2115      H2124   1.084       .  S
C2116      C2122   1.399       .  A
C2116      C2117   1.414       .  A
C2117      C2119   1.406       .  A
C2117      C2118   1.410       .  A
C2118      H2125   1.084       .  S
C2119      C2120   1.404       .  A
C2119      H2126   1.084       .  S
C2120      C2121   1.404       .  A
C2120      H2127   1.083       .  S
C2121      C2122   1.402       .  A
C2122      H2128   1.085       .  S
C2129      C2130   1.408       .  A
C2129      C2134   1.411       .  A
C2130      C2131   1.392       .  A
C2130      H2139   1.083       .  S
C2131      C2132   1.397       .  A
C2131      H2140   1.084       .  S
C2132      C2138   1.401       .  A
C2132      C2133   1.415       .  A
C2133      C2135   1.407       .  A
C2133      C2134   1.412       .  A
C2134      H2141   1.084       .  S
C2135      C2136   1.404       .  A
C2135      H2142   1.084       .  S
C2136      C2137   1.404       .  A
C2136      H2143   1.083       .  S
C2137      C2138   1.402       .  A
C2138      H2144   1.086       .  S
C2145      C2146   1.403       .  A
C2145      C2150   1.399       .  A
C2146      C2147   1.400       .  A
C2146      H2155   1.083       .  S
C2147      C2148   1.405       .  A
C2147      H2156   1.084       .  S
C2148      C2154   1.405       .  A
C2148      C2149   1.415       .  A
C2149      C2151   1.396       .  A
C2149      C2150   1.394       .  A
C2150      H2157   1.086       .  S
C2151      C2152   1.389       .  A
C2151      H2158   1.084       .  S
C2152      C2153   1.408       .  A
C2152      H2159   1.083       .  S
C2153      C2154   1.407       .  A
C2154      H2160   1.084       .  S
C2161      C2162   1.408       .  A
C2161      C2166   1.408       .  A
C2162      C2163   1.404       .  A
C2162      H2171   1.083       .  S
C2163      C2164   1.405   1_554  A
C2163      H2172   1.084       .  S
C2164      C2170   1.413       .  A
C2164      C2165   1.413   1_556  A
C2165      C2167   1.400   1_554  A
C2165      C2166   1.405       .  A
C2166      H2173   1.084       .  S
C2167      C2168   1.395       .  A
C2167      H2174   1.084   1_556  S
C2168      C2169   1.409       .  A
C2168      H2175   1.083       .  S
C2169      C2170   1.412       .  A
C2170      H2176   1.084       .  S
C2177      C2178   1.402       .  A
C2177      C2182   1.409       .  A
C2178      C2179   1.397       .  A
C2178      H2187   1.083       .  S
C2179      C2180   1.402       .  A
C2179      H2188   1.084       .  S
C2180      C2186   1.403       .  A
C2180      C2181   1.414       .  A
C2181      C2183   1.407       .  A
C2181      C2182   1.411       .  A
C2182      H2189   1.085       .  S
C2183      C2184   1.404       .  A
C2183      H2190   1.084       .  S
C2184      C2185   1.404       .  A
C2184      H2191   1.083       .  S
C2185      C2186   1.406       .  A
C2186      H2192   1.085       .  S
C2193      C2194   1.405       .  A
C2193      C2198   1.403       .  A
C2194      C2195   1.401       .  A
C2194      H2203   1.083       .  S
C2195      C2196   1.404       .  A
C2195      H2204   1.084       .  S
C2196      C2202   1.412       .  A
C2196      C2197   1.416       .  A
C2197      C2199   1.401       .  A
C2197      C2198   1.408       .  A
C2198      H2205   1.085       .  S
C2199      C2200   1.398       .  A
C2199      H2206   1.084       .  S
C2200      C2201   1.405       .  A
C2200      H2207   1.084       .  S
C2201      C2202   1.407       .  A
C2202      H2208   1.085       .  S
C2209      C2210   1.408       .  A
C2209      C2214   1.406       .  A
C2210      C2211   1.403       .  A
C2210      H2219   1.083       .  S
C2211      C2212   1.404   1_556  A
C2211      H2220   1.084       .  S
C2212      C2218   1.412       .  A
C2212      C2213   1.415   1_554  A
C2213      C2215   1.399   1_556  A
C2213      C2214   1.404       .  A
C2214      H2221   1.085       .  S
C2215      C2216   1.394       .  A
C2215      H2222   1.084       .  S
C2216      C2217   1.406       .  A
C2216      H2223   1.083       .  S
C2217      C2218   1.407       .  A
C2218      H2224   1.084       .  S
C2225      C2226   1.403       .  A
C2225      C2230   1.409       .  A
C2226      C2227   1.400       .  A
C2226      H2235   1.083       .  S
C2227      C2228   1.404       .  A
C2227      H2236   1.084       .  S
C2228      C2234   1.406       .  A
C2228      C2229   1.413       .  A
C2229      C2231   1.405       .  A
C2229      C2230   1.407       .  A
C2230      H2237   1.085       .  S
C2231      C2232   1.401       .  A
C2231      H2238   1.084       .  S
C2232      C2233   1.404       .  A
C2232      H2239   1.083       .  S
C2233      C2234   1.407       .  A
C2234      H2240   1.085       .  S
C2241      C2242   1.403       .  A
C2241      C2246   1.404       .  A
C2242      C2243   1.400       .  A
C2242      H2251   1.083       .  S
C2243      C2244   1.403       .  A
C2243      H2252   1.084       .  S
C2244      C2250   1.408       .  A
C2244      C2245   1.416       .  A
C2245      C2247   1.402       .  A
C2245      C2246   1.406       .  A
C2246      H2253   1.085       .  S
C2247      C2248   1.398       .  A
C2247      H2254   1.084       .  S
C2248      C2249   1.403       .  A
C2248      H2255   1.084       .  S
C2249      C2250   1.404       .  A
C2250      H2256   1.085       .  S
C2257      C2258   1.408       .  A
C2257      C2262   1.404       .  A
C2258      C2259   1.398       .  A
C2258      H2267   1.083       .  S
C2259      C2260   1.401       .  A
C2259      H2268   1.083       .  S
C2260      C2266   1.408       .  A
C2260      C2261   1.415       .  A
C2261      C2263   1.398       .  A
C2261      C2262   1.403       .  A
C2262      H2269   1.084       .  S
C2263      C2264   1.393       .  A
C2263      H2270   1.084       .  S
C2264      C2265   1.410       .  A
C2264      H2271   1.083       .  S
C2265      C2266   1.406       .  A
C2266      H2272   1.084       .  S
C2273      C2274   1.403       .  A
C2273      C2278   1.404       .  A
C2274      C2275   1.400       .  A
C2274      H2283   1.083       .  S
C2275      C2276   1.404       .  A
C2275      H2284   1.084       .  S
C2276      C2282   1.407       .  A
C2276      C2277   1.415       .  A
C2277      C2279   1.402       .  A
C2277      C2278   1.404       .  A
C2278      H2285   1.085       .  S
C2279      C2280   1.397       .  A
C2279      H2286   1.084       .  S
C2280      C2281   1.403       .  A
C2280      H2287   1.084       .  S
C2281      C2282   1.404       .  A
C2282      H2288   1.085       .  S
C2289      C2290   1.407       .  A
C2289      C2294   1.409       .  A
C2290      C2291   1.395       .  A
C2290      H2299   1.083       .  S
C2291      C2292   1.400       .  A
C2291      H2300   1.084       .  S
C2292      C2298   1.402       .  A
C2292      C2293   1.414       .  A
C2293      C2295   1.405       .  A
C2293      C2294   1.407       .  A
C2294      H2301   1.084       .  S
C2295      C2296   1.402       .  A
C2295      H2302   1.084       .  S
C2296      C2297   1.402       .  A
C2296      H2303   1.083       .  S
C2297      C2298   1.403       .  A
C2298      H2304   1.085       .  S
C2305      C2306   1.403       .  A
C2305      C2310   1.408       .  A
C2306      C2307   1.399       .  A
C2306      H2315   1.084       .  S
C2307      C2308   1.404       .  A
C2307      H2316   1.084       .  S
C2308      C2314   1.406       .  A
C2308      C2309   1.413       .  A
C2309      C2311   1.405       .  A
C2309      C2310   1.407       .  A
C2310      H2317   1.085       .  S
C2311      C2312   1.402       .  A
C2311      H2318   1.084       .  S
C2312      C2313   1.405       .  A
C2312      H2319   1.083       .  S
C2313      C2314   1.407       .  A
C2314      H2320   1.085       .  S
C2321      C2322   1.404       .  A
C2321      C2326   1.403       .  A
C2322      C2323   1.403       .  A
C2322      H2331   1.083       .  S
C2323      C2324   1.406       .  A
C2323      H2332   1.084       .  S
C2324      C2330   1.410       .  A
C2324      C2325   1.415       .  A
C2325      C2327   1.398       .  A
C2325      C2326   1.398       .  A
C2326      H2333   1.085       .  S
C2327      C2328   1.391       .  A
C2327      H2334   1.084       .  S
C2328      C2329   1.405       .  A
C2328      H2335   1.084       .  S
C2329      C2330   1.407       .  A
C2330      H2336   1.084       .  S
C2337      C2338   1.409       .  A
C2337      C2342   1.408       .  A
C2338      C2339   1.403       .  A
C2338      H2347   1.083       .  S
C2339      C2340   1.403       .  A
C2339      H2348   1.084       .  S
C2340      C2346   1.415       .  A
C2340      C2341   1.415       .  A
C2341      C2343   1.400       .  A
C2341      C2342   1.410       .  A
C2342      H2349   1.084       .  S
C2343      C2344   1.398       .  A
C2343      H2350   1.084       .  S
C2344      C2345   1.410       .  A
C2344      H2351   1.083       .  S
C2345      C2346   1.411       .  A
C2346      H2352   1.084       .  S
C2353      C2354   1.406       .  A
C2353      C2358   1.409       .  A
C2354      C2355   1.396       .  A
C2354      H2363   1.083       .  S
C2355      C2356   1.401       .  A
C2355      H2364   1.084       .  S
C2356      C2362   1.406       .  A
C2356      C2357   1.414       .  A
C2357      C2359   1.404       .  A
C2357      C2358   1.411       .  A
C2358      H2365   1.084       .  S
C2359      C2360   1.403       .  A
C2359      H2366   1.084       .  S
C2360      C2361   1.407       .  A
C2360      H2367   1.083       .  S
C2361      C2362   1.407       .  A
C2362      H2368   1.084       .  S
C2369      C2370   1.409       .  A
C2369      C2374   1.411       .  A
C2370      C2371   1.393       .  A
C2370      H2379   1.083       .  S
C2371      C2372   1.398       .  A
C2371      H2380   1.084       .  S
C2372      C2378   1.403       .  A
C2372      C2373   1.414       .  A
C2373      C2375   1.405       .  A
C2373      C2374   1.413       .  A
C2374      H2381   1.084       .  S
C2375      C2376   1.404       .  A
C2375      H2382   1.084       .  S
C2376      C2377   1.409       .  A
C2376      H2383   1.083       .  S
C2377      C2378   1.405       .  A
C2378      H2384   1.084       .  S
C2385      C2386   1.404       .  A
C2385      C2390   1.407       .  A
C2386      C2387   1.403       .  A
C2386      H2395   1.083       .  S
C2387      C2388   1.406       .  A
C2387      H2396   1.084       .  S
C2388      C2394   1.409       .  A
C2388      C2389   1.413       .  A
C2389      C2391   1.401       .  A
C2389      C2390   1.403       .  A
C2390      H2397   1.085       .  S
C2391      C2392   1.397       .  A
C2391      H2398   1.084       .  S
C2392      C2393   1.408       .  A
C2392      H2399   1.083       .  S
C2393      C2394   1.411       .  A
C2394      H2400   1.084       .  S
C2401      C2402   1.410       .  A
C2401      C2406   1.407       .  A
C2402      C2403   1.392       .  A
C2402      H2411   1.083       .  S
C2403      C2404   1.397       .  A
C2403      H2412   1.084       .  S
C2404      C2410   1.404       .  A
C2404      C2405   1.416       .  A
C2405      C2407   1.402       .  A
C2405      C2406   1.413       .  A
C2406      H2413   1.084       .  S
C2407      C2408   1.401       .  A
C2407      H2414   1.083       .  S
C2408      C2409   1.409       .  A
C2408      H2415   1.083       .  S
C2409      C2410   1.404       .  A
C2410      H2416   1.084       .  S
C2417      C2418   1.408       .  A
C2417      C2422   1.404       .  A
C2418      C2419   1.396       .  A
C2418      H2427   1.083       .  S
C2419      C2420   1.400       .  A
C2419      H2428   1.084       .  S
C2420      C2426   1.404       .  A
C2420      C2421   1.415       .  A
C2421      C2423   1.399       .  A
C2421      C2422   1.403       .  A
C2422      H2429   1.084       .  S
C2423      C2424   1.395       .  A
C2423      H2430   1.084       .  S
C2424      C2425   1.408       .  A
C2424      H2431   1.083       .  S
C2425      C2426   1.405       .  A
C2426      H2432   1.084       .  S
C2433      C2434   1.403       .  A
C2433      C2438   1.405       .  A
C2434      C2435   1.406       .  A
C2434      H2443   1.083       .  S
C2435      C2436   1.408       .  A
C2435      H2444   1.083       .  S
C2436      C2442   1.411       .  A
C2436      C2437   1.414       .  A
C2437      C2439   1.400       .  A
C2437      C2438   1.399       .  A
C2438      H2445   1.086       .  S
C2439      C2440   1.392       .  A
C2439      H2446   1.084       .  S
C2440      C2441   1.405       .  A
C2440      H2447   1.084       .  S
C2441      C2442   1.408       .  A
C2442      H2448   1.084       .  S
C2449      C2450   1.407       .  A
C2449      C2454   1.401       .  A
C2450      C2451   1.403       .  A
C2450      H2459   1.083       .  S
C2451      C2452   1.405   1_455  A
C2451      H2460   1.084       .  S
C2452      C2458   1.411       .  A
C2452      C2453   1.415   1_655  A
C2453      C2455   1.396   1_455  A
C2453      C2454   1.400       .  A
C2454      H2461   1.085       .  S
C2455      C2456   1.391       .  A
C2455      H2462   1.084   1_655  S
C2456      C2457   1.408       .  A
C2456      H2463   1.083       .  S
C2457      C2458   1.410       .  A
C2458      H2464   1.084       .  S
C2465      C2466   1.402       .  A
C2465      C2470   1.409       .  A
C2466      C2467   1.399       .  A
C2466      H2475   1.083       .  S
C2467      C2468   1.404       .  A
C2467      H2476   1.084       .  S
C2468      C2474   1.404       .  A
C2468      C2469   1.413       .  A
C2469      C2471   1.405       .  A
C2469      C2470   1.405       .  A
C2470      H2477   1.085       .  S
C2471      C2472   1.401       .  A
C2471      H2478   1.084       .  S
C2472      C2473   1.403       .  A
C2472      H2479   1.083       .  S
C2473      C2474   1.407       .  A
C2474      H2480   1.085       .  S
C2481      C2482   1.403       .  A
C2481      C2486   1.402       .  A
C2482      C2483   1.398       .  A
C2482      H2491   1.083       .  S
C2483      C2484   1.403       .  A
C2483      H2492   1.084       .  S
C2484      C2490   1.405       .  A
C2484      C2485   1.416       .  A
C2485      C2487   1.402       .  A
C2485      C2486   1.404       .  A
C2486      H2493   1.085       .  S
C2487      C2488   1.397       .  A
C2487      H2494   1.084       .  S
C2488      C2489   1.404       .  A
C2488      H2495   1.083       .  S
C2489      C2490   1.403       .  A
C2490      H2496   1.085       .  S
C2497      C2498   1.409       .  A
C2497      C2502   1.407       .  A
C2498      C2499   1.406       .  A
C2498      H2507   1.083       .  S
C2499      C2500   1.405   1_556  A
C2499      H2508   1.083       .  S
C2500      C2506   1.417       .  A
C2500      C2501   1.414   1_554  A
C2501      C2503   1.398   1_556  A
C2501      C2502   1.405       .  A
C2502      H2509   1.084       .  S
C2503      C2504   1.393       .  A
C2503      H2510   1.084       .  S
C2504      C2505   1.409       .  A
C2504      H2511   1.083       .  S
C2505      C2506   1.412       .  A
C2506      H2512   1.084       .  S
C2513      C2514   1.403       .  A
C2513      C2518   1.409       .  A
C2514      C2515   1.391       .  A
C2514      H2523   1.084       .  S
C2515      C2516   1.399   1_655  A
C2515      H2524   1.084   1_655  S
C2516      C2522   1.399       .  A
C2516      C2517   1.414   1_455  A
C2517      C2519   1.407   1_655  A
C2517      C2518   1.413       .  A
C2518      H2525   1.084       .  S
C2519      C2520   1.406       .  A
C2519      H2526   1.084       .  S
C2520      C2521   1.407       .  A
C2520      H2527   1.083       .  S
C2521      C2522   1.407       .  A
C2522      H2528   1.085       .  S
C2529      C2530   1.405       .  A
C2529      C2534   1.407       .  A
C2530      C2531   1.398       .  A
C2530      H2539   1.084       .  S
C2531      C2532   1.402       .  A
C2531      H2540   1.084       .  S
C2532      C2538   1.408       .  A
C2532      C2533   1.416       .  A
C2533      C2535   1.405       .  A
C2533      C2534   1.412       .  A
C2534      H2541   1.084       .  S
C2535      C2536   1.402       .  A
C2535      H2542   1.083       .  S
C2536      C2537   1.403       .  A
C2536      H2543   1.083       .  S
C2537      C2538   1.404       .  A
C2538      H2544   1.085       .  S
C2545      C2546   1.407       .  A
C2545      C2550   1.408       .  A
C2546      C2547   1.391       .  A
C2546      H2555   1.084       .  S
C2547      C2548   1.397       .  A
C2547      H2556   1.084       .  S
C2548      C2554   1.402       .  A
C2548      C2549   1.416       .  A
C2549      C2551   1.406       .  A
C2549      C2550   1.414       .  A
C2550      H2557   1.084       .  S
C2551      C2552   1.405       .  A
C2551      H2558   1.084       .  S
C2552      C2553   1.404       .  A
C2552      H2559   1.083       .  S
C2553      C2554   1.402       .  A
C2554      H2560   1.085       .  S
C2561      C2562   1.408       .  A
C2561      C2566   1.408       .  A
C2562      C2563   1.401       .  A
C2562      H2571   1.083       .  S
C2563      C2564   1.403       .  A
C2563      H2572   1.084       .  S
C2564      C2570   1.411       .  A
C2564      C2565   1.416       .  A
C2565      C2567   1.401       .  A
C2565      C2566   1.406       .  A
C2566      H2573   1.085       .  S
C2567      C2568   1.396       .  A
C2567      H2574   1.084       .  S
C2568      C2569   1.405       .  A
C2568      H2575   1.084       .  S
C2569      C2570   1.405       .  A
C2570      H2576   1.084       .  S
C2577      C2578   1.404       .  A
C2577      C2582   1.407       .  A
C2578      C2579   1.393       .  A
C2578      H2587   1.084       .  S
C2579      C2580   1.399   1_556  A
C2579      H2588   1.084   1_556  S
C2580      C2586   1.401       .  A
C2580      C2581   1.415   1_554  A
C2581      C2583   1.405   1_556  A
C2581      C2582   1.412       .  A
C2582      H2589   1.084       .  S
C2583      C2584   1.403       .  A
C2583      H2590   1.083       .  S
C2584      C2585   1.407       .  A
C2584      H2591   1.083       .  S
C2585      C2586   1.406       .  A
C2586      H2592   1.084       .  S
C2593      C2594   1.405       .  A
C2593      C2598   1.400       .  A
C2594      C2595   1.408       .  A
C2594      H2603   1.083       .  S
C2595      C2596   1.409       .  A
C2595      H2604   1.083       .  S
C2596      C2602   1.416       .  A
C2596      C2597   1.415       .  A
C2597      C2599   1.396       .  A
C2597      C2598   1.397       .  A
C2598      H2605   1.085       .  S
C2599      C2600   1.389       .  A
C2599      H2606   1.084       .  S
C2600      C2601   1.405       .  A
C2600      H2607   1.084       .  S
C2601      C2602   1.410       .  A
C2602      H2608   1.083       .  S
C2609      C2610   1.407       .  A
C2609      C2614   1.407       .  A
C2610      C2611   1.397       .  A
C2610      H2619   1.083       .  S
C2611      C2612   1.401       .  A
C2611      H2620   1.084       .  S
C2612      C2618   1.403       .  A
C2612      C2613   1.413       .  A
C2613      C2615   1.401       .  A
C2613      C2614   1.403       .  A
C2614      H2621   1.084       .  S
C2615      C2616   1.397       .  A
C2615      H2622   1.084       .  S
C2616      C2617   1.407       .  A
C2616      H2623   1.083       .  S
C2617      C2618   1.407       .  A
C2618      H2624   1.084       .  S
C2625      C2626   1.404       .  A
C2625      C2630   1.403       .  A
C2626      C2627   1.398       .  A
C2626      H2635   1.082       .  S
C2627      C2628   1.402       .  A
C2627      H2636   1.084       .  S
C2628      C2634   1.404       .  A
C2628      C2629   1.416       .  A
C2629      C2631   1.401       .  A
C2629      C2630   1.402       .  A
C2630      H2637   1.085       .  S
C2631      C2632   1.396       .  A
C2631      H2638   1.084       .  S
C2632      C2633   1.404       .  A
C2632      H2639   1.083       .  S
C2633      C2634   1.404       .  A
C2634      H2640   1.085       .  S
C2641      C2642   1.403       .  A
C2641      C2646   1.407       .  A
C2642      C2643   1.394       .  A
C2642      H2651   1.083       .  S
C2643      C2644   1.400       .  A
C2643      H2652   1.084       .  S
C2644      C2650   1.402       .  A
C2644      C2645   1.415       .  A
C2645      C2647   1.406       .  A
C2645      C2646   1.412       .  A
C2646      H2653   1.085       .  S
C2647      C2648   1.404       .  A
C2647      H2654   1.084       .  S
C2648      C2649   1.405       .  A
C2648      H2655   1.083       .  S
C2649      C2650   1.404       .  A
C2650      H2656   1.085       .  S
C2657      C2658   1.408       .  A
C2657      C2662   1.408       .  A
C2658      C2659   1.408       .  A
C2658      H2667   1.083       .  S
C2659      C2660   1.408       .  A
C2659      H2668   1.083       .  S
C2660      C2666   1.419       .  A
C2660      C2661   1.413       .  A
C2661      C2663   1.398       .  A
C2661      C2662   1.406       .  A
C2662      H2669   1.084       .  S
C2663      C2664   1.394       .  A
C2663      H2670   1.084       .  S
C2664      C2665   1.410       .  A
C2664      H2671   1.083       .  S
C2665      C2666   1.414       .  A
C2666      H2672   1.084       .  S
C2673      C2674   1.409       .  A
C2673      C2678   1.406       .  A
C2674      C2675   1.402       .  A
C2674      H2683   1.083       .  S
C2675      C2676   1.403       .  A
C2675      H2684   1.084       .  S
C2676      C2682   1.415       .  A
C2676      C2677   1.416       .  A
C2677      C2679   1.398       .  A
C2677      C2678   1.408       .  A
C2678      H2685   1.084       .  S
C2679      C2680   1.395       .  A
C2679      H2686   1.084       .  S
C2680      C2681   1.409       .  A
C2680      H2687   1.083       .  S
C2681      C2682   1.409       .  A
C2682      H2688   1.084       .  S
C2689      C2690   1.409       .  A
C2689      C2694   1.409       .  A
C2690      C2691   1.397       .  A
C2690      H2699   1.083       .  S
C2691      C2692   1.400       .  A
C2691      H2700   1.084       .  S
C2692      C2698   1.407       .  A
C2692      C2693   1.414       .  A
C2693      C2695   1.404       .  A
C2693      C2694   1.412       .  A
C2694      H2701   1.084       .  S
C2695      C2696   1.402       .  A
C2695      H2702   1.084       .  S
C2696      C2697   1.407       .  A
C2696      H2703   1.083       .  S
C2697      C2698   1.409       .  A
C2698      H2704   1.084       .  S
C2705      C2706   1.402       .  A
C2705      C2710   1.399       .  A
C2706      C2707   1.400       .  A
C2706      H2715   1.083       .  S
C2707      C2708   1.405       .  A
C2707      H2716   1.084       .  S
C2708      C2714   1.407       .  A
C2708      C2709   1.415       .  A
C2709      C2711   1.398       .  A
C2709      C2710   1.399       .  A
C2710      H2717   1.085       .  S
C2711      C2712   1.392       .  A
C2711      H2718   1.084       .  S
C2712      C2713   1.409       .  A
C2712      H2719   1.083       .  S
C2713      C2714   1.407       .  A
C2714      H2720   1.084       .  S
C2721      C2722   1.410       .  A
C2721      C2726   1.407       .  A
C2722      C2723   1.397       .  A
C2722      H2731   1.083       .  S
C2723      C2724   1.399       .  A
C2723      H2732   1.084       .  S
C2724      C2730   1.411       .  A
C2724      C2725   1.416       .  A
C2725      C2727   1.401       .  A
C2725      C2726   1.413       .  A
C2726      H2733   1.084       .  S
C2727      C2728   1.399       .  A
C2727      H2734   1.084       .  S
C2728      C2729   1.410       .  A
C2728      H2735   1.083       .  S
C2729      C2730   1.406       .  A
C2730      H2736   1.084       .  S
C2737      C2738   1.407       .  A
C2737      C2742   1.410       .  A
C2738      C2739   1.391       .  A
C2738      H2747   1.083       .  S
C2739      C2740   1.398       .  A
C2739      H2748   1.083       .  S
C2740      C2746   1.398       .  A
C2740      C2741   1.413       .  A
C2741      C2743   1.407       .  A
C2741      C2742   1.409       .  A
C2742      H2749   1.083       .  S
C2743      C2744   1.404       .  A
C2743      H2750   1.083       .  S
C2744      C2745   1.403       .  A
C2744      H2751   1.083       .  S
C2745      C2746   1.402       .  A
C2746      H2752   1.085       .  S
C2753      C2754   1.403       .  A
C2753      C2758   1.404       .  A
C2754      C2755   1.393       .  A
C2754      H2763   1.084       .  S
C2755      C2756   1.400       .  A
C2755      H2764   1.084       .  S
C2756      C2762   1.400       .  A
C2756      C2757   1.416       .  A
C2757      C2759   1.403       .  A
C2757      C2758   1.407       .  A
C2758      H2765   1.084       .  S
C2759      C2760   1.400       .  A
C2759      H2766   1.084       .  S
C2760      C2761   1.407       .  A
C2760      H2767   1.083       .  S
C2761      C2762   1.404       .  A
C2762      H2768   1.085       .  S
C2769      C2770   1.407       .  A
C2769      C2774   1.408       .  A
C2770      C2771   1.407       .  A
C2770      H2779   1.083       .  S
C2771      C2772   1.407   1_556  A
C2771      H2780   1.083   1_556  S
C2772      C2778   1.415       .  A
C2772      C2773   1.413   1_554  A
C2773      C2775   1.398   1_556  A
C2773      C2774   1.402       .  A
C2774      H2781   1.084       .  S
C2775      C2776   1.392       .  A
C2775      H2782   1.084       .  S
C2776      C2777   1.409       .  A
C2776      H2783   1.083       .  S
C2777      C2778   1.412       .  A
C2778      H2784   1.084       .  S
C2785      C2786   1.403       .  A
C2785      C2790   1.405       .  A
C2786      C2787   1.398       .  A
C2786      H2795   1.084       .  S
C2787      C2788   1.403       .  A
C2787      H2796   1.084       .  S
C2788      C2794   1.407       .  A
C2788      C2789   1.416       .  A
C2789      C2791   1.404       .  A
C2789      C2790   1.409       .  A
C2790      H2797   1.085       .  S
C2791      C2792   1.400       .  A
C2791      H2798   1.084       .  S
C2792      C2793   1.403       .  A
C2792      H2799   1.083       .  S
C2793      C2794   1.405       .  A
C2794      H2800   1.085       .  S
C2801      C2802   1.406       .  A
C2801      C2806   1.405       .  A
C2802      C2803   1.400       .  A
C2802      H2811   1.083       .  S
C2803      C2804   1.402       .  A
C2803      H2812   1.084       .  S
C2804      C2810   1.412       .  A
C2804      C2805   1.417       .  A
C2805      C2807   1.401       .  A
C2805      C2806   1.411       .  A
C2806      H2813   1.085       .  S
C2807      C2808   1.398       .  A
C2807      H2814   1.084       .  S
C2808      C2809   1.406       .  A
C2808      H2815   1.084       .  S
C2809      C2810   1.405       .  A
C2810      H2816   1.085       .  S
C2817      C2818   1.410       .  A
C2817      C2822   1.406       .  A
C2818      C2819   1.406       .  A
C2818      H2827   1.083       .  S
C2819      C2820   1.406       .  A
C2819      H2828   1.083       .  S
C2820      C2826   1.418   1_554  A
C2820      C2821   1.414       .  A
C2821      C2823   1.397   1_554  A
C2821      C2822   1.406       .  A
C2822      H2829   1.084       .  S
C2823      C2824   1.393       .  A
C2823      H2830   1.084   1_556  S
C2824      C2825   1.410       .  A
C2824      H2831   1.083       .  S
C2825      C2826   1.413       .  A
C2826      H2832   1.083       .  S
C2833      C2834   1.409       .  A
C2833      C2838   1.408       .  A
C2834      C2835   1.393       .  A
C2834      H2843   1.083       .  S
C2835      C2836   1.397   1_545  A
C2835      H2844   1.084   1_545  S
C2836      C2842   1.403       .  A
C2836      C2837   1.415       .  A
C2837      C2839   1.402       .  A
C2837      C2838   1.410   1_565  A
C2838      H2845   1.084       .  S
C2839      C2840   1.400       .  A
C2839      H2846   1.084       .  S
C2840      C2841   1.409       .  A
C2840      H2847   1.083       .  S
C2841      C2842   1.404       .  A
C2842      H2848   1.084       .  S
C2849      C2850   1.408       .  A
C2849      C2854   1.403       .  A
C2850      C2851   1.396       .  A
C2850      H2859   1.083       .  S
C2851      C2852   1.400       .  A
C2851      H2860   1.084       .  S
C2852      C2858   1.405       .  A
C2852      C2853   1.417       .  A
C2853      C2855   1.399       .  A
C2853      C2854   1.400       .  A
C2854      H2861   1.084       .  S
C2855      C2856   1.391       .  A
C2855      H2862   1.084       .  S
C2856      C2857   1.404       .  A
C2856      H2863   1.084       .  S
C2857      C2858   1.401       .  A
C2858      H2864   1.084       .  S
C2865      C2866   1.403       .  A
C2865      C2870   1.410       .  A
C2866      C2867   1.402       .  A
C2866      H2875   1.083       .  S
C2867      C2868   1.406       .  A
C2867      H2876   1.084       .  S
C2868      C2874   1.407       .  A
C2868      C2869   1.412       .  A
C2869      C2871   1.406       .  A
C2869      C2870   1.406       .  A
C2870      H2877   1.085       .  S
C2871      C2872   1.401       .  A
C2871      H2878   1.084       .  S
C2872      C2873   1.403       .  A
C2872      H2879   1.083       .  S
C2873      C2874   1.410       .  A
C2874      H2880   1.085       .  S
C2881      C2882   1.404       .  A
C2881      C2886   1.407       .  A
C2882      C2883   1.401       .  A
C2882      H2891   1.084       .  S
C2883      C2884   1.404       .  A
C2883      H2892   1.084       .  S
C2884      C2890   1.410       .  A
C2884      C2885   1.415       .  A
C2885      C2887   1.404       .  A
C2885      C2886   1.410       .  A
C2886      H2893   1.085       .  S
C2887      C2888   1.401       .  A
C2887      H2894   1.084       .  S
C2888      C2889   1.403       .  A
C2888      H2895   1.083       .  S
C2889      C2890   1.407       .  A
C2890      H2896   1.085       .  S
C2897      C2898   1.408       .  A
C2897      C2902   1.411       .  A
C2898      C2899   1.407       .  A
C2898      H2907   1.083       .  S
C2899      C2900   1.407   1_545  A
C2899      H2908   1.083   1_545  S
C2900      C2906   1.418       .  A
C2900      C2901   1.413       .  A
C2901      C2903   1.400       .  A
C2901      C2902   1.409   1_565  A
C2902      H2909   1.084       .  S
C2903      C2904   1.397       .  A
C2903      H2910   1.084       .  S
C2904      C2905   1.410       .  A
C2904      H2911   1.083       .  S
C2905      C2906   1.414       .  A
C2906      H2912   1.084       .  S
C2913      C2914   1.405       .  A
C2913      C2918   1.408       .  A
C2914      C2915   1.392       .  A
C2914      H2923   1.084       .  S
C2915      C2916   1.398       .  A
C2915      H2924   1.084       .  S
C2916      C2922   1.402       .  A
C2916      C2917   1.416       .  A
C2917      C2919   1.406       .  A
C2917      C2918   1.413       .  A
C2918      H2925   1.084       .  S
C2919      C2920   1.404       .  A
C2919      H2926   1.084       .  S
C2920      C2921   1.405       .  A
C2920      H2927   1.083       .  S
C2921      C2922   1.399       .  A
C2922      H2928   1.085       .  S
C2929      C2930   1.403       .  A
C2929      C2934   1.407       .  A
C2930      C2931   1.392       .  A
C2930      H2939   1.084       .  S
C2931      C2932   1.399       .  A
C2931      H2940   1.084       .  S
C2932      C2938   1.399       .  A
C2932      C2933   1.415       .  A
C2933      C2935   1.406       .  A
C2933      C2934   1.411       .  A
C2934      H2941   1.084       .  S
C2935      C2936   1.404       .  A
C2935      H2942   1.083       .  S
C2936      C2937   1.405       .  A
C2936      H2943   1.083       .  S
C2937      C2938   1.404       .  A
C2938      H2944   1.085       .  S
C2945      C2946   1.401       .  A
C2945      C2950   1.403       .  A
C2946      C2947   1.390       .  A
C2946      H2955   1.084       .  S
C2947      C2948   1.399       .  A
C2947      H2956   1.084       .  S
C2948      C2954   1.396       .  A
C2948      C2949   1.416       .  A
C2949      C2951   1.406       .  A
C2949      C2950   1.407       .  A
C2950      H2957   1.084       .  S
C2951      C2952   1.402       .  A
C2951      H2958   1.083       .  S
C2952      C2953   1.402       .  A
C2952      H2959   1.083       .  S
C2953      C2954   1.398       .  A
C2954      H2960   1.086       .  S
C2961      C2962   1.407       .  A
C2961      C2966   1.405       .  A
C2962      C2963   1.402       .  A
C2962      H2971   1.083       .  S
C2963      C2964   1.405       .  A
C2963      H2972   1.084       .  S
C2964      C2970   1.407       .  A
C2964      C2965   1.413       .  A
C2965      C2967   1.399       .  A
C2965      C2966   1.398       .  A
C2966      H2973   1.085       .  S
C2967      C2968   1.392       .  A
C2967      H2974   1.084       .  S
C2968      C2969   1.406       .  A
C2968      H2975   1.083       .  S
C2969      C2970   1.410       .  A
C2970      H2976   1.084       .  S
C2977      C2978   1.406       .  A
C2977      C2982   1.407       .  A
C2978      C2979   1.390       .  A
C2978      H2987   1.083       .  S
C2979      C2980   1.397       .  A
C2979      H2988   1.084       .  S
C2980      C2986   1.396       .  A
C2980      C2981   1.414       .  A
C2981      C2983   1.404       .  A
C2981      C2982   1.406       .  A
C2982      H2989   1.084       .  S
C2983      C2984   1.400       .  A
C2983      H2990   1.084       .  S
C2984      C2985   1.404       .  A
C2984      H2991   1.083       .  S
C2985      C2986   1.402       .  A
C2986      H2992   1.085       .  S
C2993      C2994   1.407       .  A
C2993      C2998   1.406       .  A
C2994      C2995   1.403       .  A
C2994      H3003   1.083       .  S
C2995      C2996   1.405       .  A
C2995      H3004   1.084       .  S
C2996      C3002   1.411       .  A
C2996      C2997   1.414       .  A
C2997      C2999   1.399       .  A
C2997      C2998   1.402       .  A
C2998      H3005   1.084       .  S
C2999      C3000   1.393       .  A
C2999      H3006   1.084       .  S
C3000      C3001   1.408       .  A
C3000      H3007   1.083       .  S
C3001      C3002   1.411       .  A
C3002      H3008   1.084       .  S
C3009      C3010   1.409       .  A
C3009      C3014   1.411       .  A
C3010      C3011   1.395       .  A
C3010      H3019   1.083       .  S
C3011      C3012   1.399       .  A
C3011      H3020   1.084       .  S
C3012      C3018   1.406       .  A
C3012      C3013   1.414       .  A
C3013      C3015   1.405       .  A
C3013      C3014   1.414       .  A
C3014      H3021   1.084       .  S
C3015      C3016   1.404       .  A
C3015      H3022   1.084       .  S
C3016      C3017   1.409       .  A
C3016      H3023   1.083       .  S
C3017      C3018   1.408       .  A
C3018      H3024   1.084       .  S
C3025      C3026   1.409       .  A
C3025      C3030   1.407       .  A
C3026      C3027   1.405       .  A
C3026      H3035   1.083       .  S
C3027      C3028   1.405       .  A
C3027      H3036   1.083       .  S
C3028      C3034   1.417       .  A
C3028      C3029   1.415       .  A
C3029      C3031   1.398       .  A
C3029      C3030   1.406       .  A
C3030      H3037   1.084       .  S
C3031      C3032   1.394       .  A
C3031      H3038   1.084       .  S
C3032      C3033   1.410       .  A
C3032      H3039   1.083       .  S
C3033      C3034   1.411       .  A
C3034      H3040   1.084       .  S
C3041      C3042   1.405       .  A
C3041      C3046   1.407       .  A
C3042      C3043   1.394       .  A
C3042      H3051   1.083       .  S
C3043      C3044   1.400       .  A
C3043      H3052   1.084       .  S
C3044      C3050   1.399       .  A
C3044      C3045   1.413       .  A
C3045      C3047   1.402       .  A
C3045      C3046   1.402       .  A
C3046      H3053   1.084       .  S
C3047      C3048   1.397       .  A
C3047      H3054   1.084       .  S
C3048      C3049   1.406       .  A
C3048      H3055   1.083       .  S
C3049      C3050   1.405       .  A
C3050      H3056   1.084       .  S
C3057      C3058   1.409       .  A
C3057      C3062   1.406       .  A
C3058      C3059   1.402       .  A
C3058      H3067   1.083       .  S
C3059      C3060   1.402       .  A
C3059      H3068   1.084       .  S
C3060      C3066   1.414       .  A
C3060      C3061   1.416       .  A
C3061      C3063   1.399       .  A
C3061      C3062   1.409       .  A
C3062      H3069   1.084       .  S
C3063      C3064   1.396       .  A
C3063      H3070   1.084       .  S
C3064      C3065   1.410       .  A
C3064      H3071   1.083       .  S
C3065      C3066   1.408       .  A
C3066      H3072   1.084       .  S
C3073      C3074   1.409       .  A
C3073      C3078   1.411       .  A
C3074      C3075   1.391       .  A
C3074      H3083   1.083       .  S
C3075      C3076   1.397       .  A
C3075      H3084   1.084       .  S
C3076      C3082   1.401       .  A
C3076      C3077   1.414       .  A
C3077      C3079   1.405       .  A
C3077      C3078   1.413       .  A
C3078      H3085   1.084       .  S
C3079      C3080   1.405       .  A
C3079      H3086   1.084       .  S
C3080      C3081   1.409       .  A
C3080      H3087   1.083       .  S
C3081      C3082   1.405       .  A
C3082      H3088   1.084       .  S
C3089      C3090   1.405       .  A
C3089      C3094   1.404       .  A
C3090      C3091   1.404       .  A
C3090      H3099   1.083       .  S
C3091      C3092   1.405       .  A
C3091      H3100   1.084       .  S
C3092      C3098   1.414       .  A
C3092      C3093   1.416       .  A
C3093      C3095   1.400       .  A
C3093      C3094   1.407       .  A
C3094      H3101   1.085       .  S
C3095      C3096   1.396       .  A
C3095      H3102   1.084       .  S
C3096      C3097   1.404       .  A
C3096      H3103   1.083       .  S
C3097      C3098   1.408       .  A
C3098      H3104   1.084       .  S
C3105      C3106   1.406       .  A
C3105      C3110   1.411       .  A
C3106      C3107   1.396       .  A
C3106      H3115   1.083       .  S
C3107      C3108   1.401       .  A
C3107      H3116   1.084       .  S
C3108      C3114   1.400       .  A
C3108      C3109   1.413       .  A
C3109      C3111   1.407       .  A
C3109      C3110   1.407       .  A
C3110      H3117   1.084       .  S
C3111      C3112   1.403       .  A
C3111      H3118   1.084       .  S
C3112      C3113   1.402       .  A
C3112      H3119   1.083       .  S
C3113      C3114   1.404       .  A
C3114      H3120   1.085       .  S
C3121      C3122   1.409       .  A
C3121      C3126   1.400       .  A
C3122      C3123   1.404       .  A
C3122      H3131   1.083       .  S
C3123      C3124   1.404   1_455  A
C3123      H3132   1.084       .  S
C3124      C3130   1.414       .  A
C3124      C3125   1.416   1_655  A
C3125      C3127   1.393   1_455  A
C3125      C3126   1.399       .  A
C3126      H3133   1.085       .  S
C3127      C3128   1.387       .  A
C3127      H3134   1.084       .  S
C3128      C3129   1.410       .  A
C3128      H3135   1.083       .  S
C3129      C3130   1.408       .  A
C3130      H3136   1.084       .  S
C3137      C3138   1.405       .  A
C3137      C3142   1.411       .  A
C3138      C3139   1.392       .  A
C3138      H3147   1.084       .  S
C3139      C3140   1.399       .  A
C3139      H3148   1.084       .  S
C3140      C3146   1.401   1_565  A
C3140      C3141   1.414       .  A
C3141      C3143   1.407   1_565  A
C3141      C3142   1.415       .  A
C3142      H3149   1.084       .  S
C3143      C3144   1.407       .  A
C3143      H3150   1.083   1_545  S
C3144      C3145   1.408       .  A
C3144      H3151   1.083       .  S
C3145      C3146   1.407       .  A
C3146      H3152   1.084       .  S
C3153      C3154   1.403       .  A
C3153      C3158   1.405       .  A
C3154      C3155   1.397       .  A
C3154      H3163   1.084       .  S
C3155      C3156   1.403       .  A
C3155      H3164   1.083       .  S
C3156      C3162   1.405       .  A
C3156      C3157   1.415       .  A
C3157      C3159   1.405       .  A
C3157      C3158   1.408       .  A
C3158      H3165   1.084       .  S
C3159      C3160   1.401       .  A
C3159      H3166   1.083       .  S
C3160      C3161   1.402       .  A
C3160      H3167   1.083       .  S
C3161      C3162   1.404       .  A
C3162      H3168   1.085       .  S
C3169      C3170   1.406       .  A
C3169      C3174   1.411       .  A
C3170      C3171   1.394       .  A
C3170      H3179   1.081       .  S
C3171      C3172   1.398       .  A
C3171      H3180   1.084       .  S
C3172      C3178   1.407       .  A
C3172      C3173   1.416       .  A
C3173      C3175   1.407       .  A
C3173      C3174   1.419       .  A
C3174      H3181   1.084       .  S
C3175      C3176   1.407       .  A
C3175      H3182   1.084       .  S
C3176      C3177   1.406       .  A
C3176      H3183   1.083       .  S
C3177      C3178   1.404       .  A
C3178      H3184   1.085       .  S
C3185      C3186   1.407       .  A
C3185      C3190   1.410       .  A
C3186      C3187   1.395       .  A
C3186      H3195   1.083       .  S
C3187      C3188   1.400   1_556  A
C3187      H3196   1.084       .  S
C3188      C3194   1.402       .  A
C3188      C3189   1.413   1_554  A
C3189      C3191   1.405   1_556  A
C3189      C3190   1.409       .  A
C3190      H3197   1.084       .  S
C3191      C3192   1.402       .  A
C3191      H3198   1.084       .  S
C3192      C3193   1.407       .  A
C3192      H3199   1.083       .  S
C3193      C3194   1.407       .  A
C3194      H3200   1.084       .  S
C3201      C3202   1.409       .  A
C3201      C3206   1.409       .  A
C3202      C3203   1.403       .  A
C3202      H3211   1.083       .  S
C3203      C3204   1.404       .  A
C3203      H3212   1.083       .  S
C3204      C3210   1.415   1_565  A
C3204      C3205   1.414       .  A
C3205      C3207   1.400   1_565  A
C3205      C3206   1.410       .  A
C3206      H3213   1.084       .  S
C3207      C3208   1.398       .  A
C3207      H3214   1.084   1_545  S
C3208      C3209   1.410       .  A
C3208      H3215   1.083       .  S
C3209      C3210   1.411       .  A
C3210      H3216   1.084       .  S
C3217      C3218   1.404       .  A
C3217      C3222   1.405       .  A
C3218      C3219   1.400       .  A
C3218      H3227   1.083       .  S
C3219      C3220   1.403       .  A
C3219      H3228   1.084       .  S
C3220      C3226   1.406       .  A
C3220      C3221   1.415       .  A
C3221      C3223   1.401       .  A
C3221      C3222   1.403       .  A
C3222      H3229   1.085       .  S
C3223      C3224   1.396       .  A
C3223      H3230   1.084       .  S
C3224      C3225   1.404       .  A
C3224      H3231   1.083       .  S
C3225      C3226   1.405       .  A
C3226      H3232   1.085       .  S
C3233      C3234   1.405       .  A
C3233      C3238   1.408       .  A
C3234      C3235   1.394       .  A
C3234      H3243   1.084       .  S
C3235      C3236   1.400       .  A
C3235      H3244   1.084       .  S
C3236      C3242   1.404       .  A
C3236      C3237   1.415       .  A
C3237      C3239   1.406       .  A
C3237      C3238   1.413       .  A
C3238      H3245   1.084       .  S
C3239      C3240   1.404       .  A
C3239      H3246   1.084       .  S
C3240      C3241   1.405       .  A
C3240      H3247   1.083       .  S
C3241      C3242   1.404       .  A
C3242      H3248   1.085       .  S
C3249      C3250   1.406       .  A
C3249      C3254   1.399       .  A
C3250      C3251   1.393       .  A
C3250      H3259   1.084       .  S
C3251      C3252   1.398       .  A
C3251      H3260   1.084       .  S
C3252      C3258   1.404       .  A
C3252      C3253   1.418       .  A
C3253      C3255   1.398       .  A
C3253      C3254   1.405       .  A
C3254      H3261   1.084       .  S
C3255      C3256   1.394       .  A
C3255      H3262   1.084       .  S
C3256      C3257   1.409       .  A
C3256      H3263   1.083       .  S
C3257      C3258   1.403       .  A
C3258      H3264   1.084       .  S
C3265      C3266   1.408       .  A
C3265      C3270   1.402       .  A
C3266      C3267   1.405       .  A
C3266      H3275   1.083       .  S
C3267      C3268   1.406       .  A
C3267      H3276   1.084       .  S
C3268      C3274   1.413   1_556  A
C3268      C3269   1.415       .  A
C3269      C3271   1.396   1_556  A
C3269      C3270   1.398       .  A
C3270      H3277   1.085       .  S
C3271      C3272   1.389       .  A
C3271      H3278   1.084   1_554  S
C3272      C3273   1.406       .  A
C3272      H3279   1.083       .  S
C3273      C3274   1.409       .  A
C3274      H3280   1.084       .  S
C3281      C3282   1.408       .  A
C3281      C3286   1.407       .  A
C3282      C3283   1.400       .  A
C3282      H3291   1.083       .  S
C3283      C3284   1.402   1_655  A
C3283      H3292   1.084       .  S
C3284      C3290   1.410       .  A
C3284      C3285   1.416   1_455  A
C3285      C3287   1.400   1_655  A
C3285      C3286   1.405       .  A
C3286      H3293   1.084       .  S
C3287      C3288   1.395       .  A
C3287      H3294   1.084       .  S
C3288      C3289   1.406       .  A
C3288      H3295   1.084       .  S
C3289      C3290   1.404       .  A
C3290      H3296   1.084       .  S
C3297      C3298   1.407       .  A
C3297      C3302   1.411       .  A
C3298      C3299   1.395       .  A
C3298      H3307   1.083       .  S
C3299      C3300   1.400       .  A
C3299      H3308   1.084       .  S
C3300      C3306   1.403       .  A
C3300      C3301   1.413       .  A
C3301      C3303   1.407       .  A
C3301      C3302   1.412       .  A
C3302      H3309   1.084       .  S
C3303      C3304   1.406       .  A
C3303      H3310   1.084       .  S
C3304      C3305   1.404       .  A
C3304      H3311   1.083       .  S
C3305      C3306   1.408       .  A
C3306      H3312   1.085       .  S
C3313      C3314   1.401       .  A
C3313      C3318   1.402       .  A
C3314      C3315   1.403       .  A
C3314      H3323   1.083       .  S
C3315      C3316   1.407       .  A
C3315      H3324   1.083       .  S
C3316      C3322   1.406       .  A
C3316      C3317   1.412       .  A
C3317      C3319   1.401       .  A
C3317      C3318   1.399       .  A
C3318      H3325   1.082       .  S
C3319      C3320   1.394       .  A
C3319      H3326   1.083       .  S
C3320      C3321   1.405       .  A
C3320      H3327   1.083       .  S
C3321      C3322   1.411       .  A
C3322      H3328   1.084       .  S
C3329      C3330   1.403       .  A
C3329      C3334   1.402       .  A
C3330      C3331   1.404       .  A
C3330      H3339   1.084       .  S
C3331      C3332   1.406       .  A
C3331      H3340   1.083       .  S
C3332      C3338   1.411       .  A
C3332      C3333   1.415       .  A
C3333      C3335   1.397       .  A
C3333      C3334   1.399       .  A
C3334      H3341   1.085       .  S
C3335      C3336   1.391       .  A
C3335      H3342   1.085       .  S
C3336      C3337   1.407       .  A
C3336      H3343   1.083       .  S
C3337      C3338   1.407       .  A
C3338      H3344   1.084       .  S
C3345      C3346   1.403       .  A
C3345      C3350   1.403       .  A
C3346      C3347   1.401       .  A
C3346      H3355   1.083       .  S
C3347      C3348   1.405       .  A
C3347      H3356   1.084       .  S
C3348      C3354   1.407       .  A
C3348      C3349   1.415       .  A
C3349      C3351   1.401       .  A
C3349      C3350   1.400       .  A
C3350      H3357   1.085       .  S
C3351      C3352   1.394       .  A
C3351      H3358   1.084       .  S
C3352      C3353   1.401       .  A
C3352      H3359   1.084       .  S
C3353      C3354   1.405       .  A
C3354      H3360   1.085       .  S
