geometry optimzed in LAMMPS
_audit_creation_date              2020-11-30 
_audit_creation_method            'lammps2cif' 
_symmetry_space_group_name_H-M    'P1' 
_symmetry_Int_Tables_number       1 
_symmetry_cell_setting            triclinic 
loop_ 
_symmetry_equiv_pos_as_xyz 
  x,y,z 
_cell_length_a                    41.47764542 
_cell_length_b                    38.3285320329182 
_cell_length_c                    29.03756145888289 
_cell_angle_alpha                 89.90943013021342 
_cell_angle_beta                  90.26137161382454 
_cell_angle_gamma                 89.2171010277661 
loop_ 
_atom_site_label 
_atom_site_type_symbol 
_atom_site_fract_x 
_atom_site_fract_y 
_atom_site_fract_z 
_atom_site_charge 
N1          N  0.99893559  0.03301164  0.44044497    -0.36500
N2          N  0.04874172  0.49671179  0.99453805    -0.57100
N3          N  0.49905093  0.46380483  0.05018891    -0.36500
N4          N  0.44915927  0.49962641  0.99600238    -0.57100
C5          C  0.02518339  0.05237320  0.43047579     0.27100
C6          C  0.47268708  0.05309787  0.43023049     0.27100
C7          C  0.02512259  0.44369029  0.06123790     0.27100
C8          C  0.47267035  0.44553741  0.06259495     0.27100
C9          C  0.06812560  0.01466067  0.46572700     0.35700
C10         C  0.06835962  0.47651873  0.02130296     0.35700
C11         C  0.42959245  0.01839108  0.46746109     0.35700
C12         C  0.42965224  0.48177044  0.02474067     0.35700
C13         C  0.01532625  0.08493449  0.41435814    -0.21800
C14         C  0.48242874  0.08536435  0.41414092    -0.21800
C15         C  0.01511904  0.41242797  0.08015017    -0.21800
C16         C  0.48223333  0.41355581  0.08096210    -0.21800
C17         C  0.09999960  0.00500391  0.47345164    -0.22900
C18         C  0.10023473  0.48182236  0.00927326    -0.22900
C19         C  0.39763277  0.01179770  0.47764610    -0.22900
C20         C  0.39767563  0.48983190  0.01468300    -0.22900
C21         C  0.05793765  0.04210088  0.43594148    -0.18200
C22         C  0.43999111  0.04392621  0.43558293    -0.18200
C23         C  0.44001738  0.45611033  0.05715850    -0.18200
C24         C  0.05790089  0.45200748  0.05462044    -0.18200
H25         H  0.03012343  0.10691668  0.40535642     0.14700
H26         H  0.46748954  0.10770800  0.40499201     0.14700
H27         H  0.02989258  0.39033484  0.09080161     0.14700
H28         H  0.46720302  0.39236648  0.09222356     0.14700
H29         H  0.12127562  0.01389117  0.45585899     0.13000
H30         H  0.12182536  0.47026295  0.02393205     0.13000
H31         H  0.37608592  0.02199137  0.46118133     0.13000
H32         H  0.37613039  0.48092856  0.03150891     0.13000
H33         H  0.99887140  0.00687881  0.45033023     0.26200
H34         H  0.49931414  0.48949077  0.03848363     0.26200
In35       In  0.12390477  0.39118619  0.12857734     1.36900
C36         C  0.08210132  0.43115651  0.08166984     0.77700
O37         O  0.13846569  0.42680825  0.18564892    -0.60800
O38         O  0.16809280  0.42394648  0.12630117    -0.51700
C39         C  0.11747860  0.34685703  0.19726926     0.70300
O40         O  0.09301695  0.35984654  0.17684718    -0.46500
C41         C  0.13684329  0.33653096  0.07619456     0.75000
O42         O  0.07802689  0.42309265  0.12351754    -0.58400
O43         O  0.15795280  0.35935393  0.08410820    -0.48500
O44         O  0.10767560  0.41896360  0.06449173    -0.54800
C45         C  0.16411442  0.43621861  0.16637218     0.85200
O46         O  0.14424404  0.35851952  0.18438762    -0.56700
O47         O  0.10927538  0.34355320  0.09203371    -0.60000
In48       In  0.12424431  0.10989307  0.37943760     1.36900
C49         C  0.16644220  0.06912816  0.33487536     0.77700
O50         O  0.10831878  0.07321265  0.43444006    -0.60800
O51         O  0.07920163  0.07808138  0.37442763    -0.51700
C52         C  0.13016685  0.15426181  0.44861743     0.70300
O53         O  0.15475505  0.14109365  0.42911945    -0.46500
C54         C  0.11262138  0.16448167  0.32538107     0.75000
O55         O  0.16961718  0.07677671  0.37702531    -0.58400
O56         O  0.09131182  0.14186865  0.33301728    -0.48500
O57         O  0.14153584  0.08205797  0.31627271    -0.54800
C58         C  0.08276592  0.06455892  0.41397098     0.85200
O59         O  0.10355528  0.14253208  0.43491837    -0.56700
O60         O  0.13990338  0.15749267  0.34263613    -0.60000
N61         N  0.24755710  0.46904843  0.19054142    -0.36500
N62         N  0.29843588  0.00661975  0.23861066    -0.57100
N63         N  0.24988206  0.03884796  0.29865008    -0.36500
N64         N  0.19872312  0.50331895  0.24827194    -0.57100
C65         C  0.27397582  0.45022610  0.17766761     0.27100
C66         C  0.22157316  0.44879057  0.18251611     0.27100
C67         C  0.27633334  0.05673921  0.31197688     0.27100
C68         C  0.22375633  0.05609648  0.31580753     0.27100
C69         C  0.31689840  0.48925390  0.20753752     0.35700
C70         C  0.31843501  0.02732683  0.26306883     0.35700
C71         C  0.17877860  0.48449631  0.22112570     0.35700
C72         C  0.17973899  0.02330227  0.27583399     0.35700
C73         C  0.26456409  0.41775192  0.16188422    -0.21800
C74         C  0.23174463  0.41682725  0.16499617    -0.21800
C75         C  0.26671301  0.08541830  0.33796295    -0.21800
C76         C  0.23393805  0.08500505  0.34035677    -0.21800
C77         C  0.34854596  0.49996061  0.21114786    -0.22900
C78         C  0.34968531  0.02333628  0.24663963    -0.22900
C79         C  0.14699184  0.49295763  0.23121179    -0.22900
C80         C  0.14759009  0.01674411  0.26626398    -0.22900
C81         C  0.30647757  0.46110777  0.17974425    -0.18200
C82         C  0.18877550  0.45807576  0.18982050    -0.18200
C83         C  0.19076799  0.04799403  0.30871016    -0.18200
C84         C  0.30897123  0.04949189  0.30010230    -0.18200
H85         H  0.27966796  0.39622498  0.15057671     0.14700
H86         H  0.21725369  0.39444765  0.15655983     0.14700
H87         H  0.28135455  0.10612380  0.35166846     0.14700
H88         H  0.21947039  0.10521322  0.35641256     0.14700
H89         H  0.36913492  0.49127231  0.19131100     0.13000
H90         H  0.37158837  0.03521792  0.25864166     0.13000
H91         H  0.12524293  0.48310266  0.21567511     0.13000
H92         H  0.12635758  0.02761903  0.28251284     0.13000
H93         H  0.24702453  0.49516049  0.20037915     0.26200
H94         H  0.24985934  0.01519613  0.28109983     0.26200
In95       In  0.37319176  0.39345178  0.12082234     1.36900
C96         C  0.33123852  0.43858938  0.15662390     0.77700
O97         O  0.34719907  0.35352708  0.16027287    -0.60800
O98         O  0.39676349  0.36156198  0.17722590    -0.51700
C99         C  0.37526687  0.34348507  0.05875112     0.70300
O100        O  0.34966850  0.36130876  0.06545415    -0.46500
C101        C  0.41534314  0.43525541  0.08189003     0.75000
O102        O  0.32722203  0.42528682  0.11705822    -0.58400
O103        O  0.41913392  0.42401900  0.12274555    -0.48500
O104        O  0.35727477  0.42969714  0.17634009    -0.54800
C105        C  0.37144035  0.34402069  0.18380088     0.85200
O106        O  0.39949401  0.35281301  0.08191155    -0.56700
O107        O  0.38958976  0.42584116  0.06263171    -0.60000
In108      In  0.37489384  0.11007262  0.37008214     1.36900
C109        C  0.41567130  0.06605971  0.41083156     0.77700
O110        O  0.39279879  0.15125818  0.41638939    -0.60800
O111        O  0.34234630  0.14175057  0.41702012    -0.51700
C112        C  0.38390608  0.16049334  0.31021337     0.70300
O113        O  0.40719413  0.14110235  0.32354644    -0.46500
C114        C  0.33399422  0.06909318  0.32614940     0.75000
O115        O  0.41999014  0.07728468  0.37032451    -0.58400
O116        O  0.33144914  0.07604604  0.36860254    -0.48500
O117        O  0.38999807  0.07676642  0.42940793    -0.54800
C118        C  0.36533068  0.16078411  0.43037777     0.85200
O119        O  0.35650658  0.15157913  0.32437971    -0.56700
O120        O  0.35846273  0.08182192  0.30736071    -0.60000
C121        C  0.37004033  0.31315446  0.21395792    -0.05100
C122        C  0.33993902  0.30199113  0.22976763    -0.05100
C123        C  0.33697222  0.26974693  0.25140139    -0.23200
C124        C  0.36402826  0.24789983  0.25705835     0.19000
C125        C  0.39467444  0.25919899  0.24265552     0.16200
C126        C  0.39756283  0.29205882  0.22154468    -0.18300
C127        C  0.42164513  0.23705880  0.24876101    -0.20100
C128        C  0.41826079  0.20420160  0.26931255    -0.12700
C129        C  0.38781772  0.19293811  0.28356148     0.04000
C130        C  0.36079924  0.21489057  0.27686380    -0.24800
H131        H  0.31845477  0.31785746  0.22416533     0.09100
H132        H  0.31337610  0.26153252  0.26265928     0.12700
H133        H  0.42078545  0.30036257  0.20890395     0.12600
H134        H  0.44534458  0.24525724  0.23799436     0.12400
H135        H  0.43946298  0.18789211  0.27477187     0.12900
H136        H  0.33719747  0.20668312  0.28817641     0.14900
C137        C  0.37708497  0.31265654  0.02858953    -0.05100
C138        C  0.40727609  0.30142583  0.01216421    -0.05100
C139        C  0.41061027  0.26956972  0.98952094    -0.23200
C140        C  0.38388579  0.24806464  0.98365159     0.19000
C141        C  0.35318115  0.25936193  0.49895570     0.16200
C142        C  0.34988856  0.29189179  0.02098630    -0.18300
C143        C  0.32658167  0.23749462  0.49287534    -0.20100
C144        C  0.33042686  0.20480201  0.47180909    -0.12700
C145        C  0.36095942  0.19342105  0.45684994     0.04000
C146        C  0.38755305  0.21528544  0.46305834    -0.24800
H147        H  0.42853156  0.31700361  0.01781918     0.09100
H148        H  0.43425801  0.26134653  0.97767329     0.12700
H149        H  0.32662312  0.30020452  0.53418742     0.12600
H150        H  0.30283303  0.24570401  0.50428353     0.12400
H151        H  0.30950867  0.18863568  0.46670238     0.12900
H152        H  0.41118733  0.20706141  0.95110838     0.14900
C153        C  0.11607931  0.31841253  0.23120475    -0.05100
C154        C  0.14134016  0.31454140  0.26319562    -0.05100
C155        C  0.14437892  0.28432439  0.28964057    -0.23200
C156        C  0.12261013  0.25707839  0.28372845     0.19000
C157        C  0.09637506  0.26105684  0.25280385     0.16200
C158        C  0.09298365  0.29206585  0.22708352    -0.18300
C159        C  0.07491592  0.23334082  0.24686299    -0.20100
C160        C  0.07986915  0.20178719  0.27057299    -0.12700
C161        C  0.10643835  0.19747658  0.30028088     0.04000
C162        C  0.12738639  0.22548591  0.30716626    -0.24800
H163        H  0.15944513  0.33450169  0.26659829     0.09100
H164        H  0.16450758  0.28170322  0.31337904     0.12700
H165        H  0.07378597  0.29468977  0.20179674     0.12600
H166        H  0.05464360  0.23586699  0.22337494     0.12400
H167        H  0.06327960  0.18059782  0.26514786     0.12900
H168        H  0.14766616  0.22261967  0.33064683     0.14900
C169        C  0.13127268  0.18303390  0.48219876    -0.05100
C170        C  0.10483263  0.18837100  0.51149295    -0.05100
C171        C  0.10192850  0.21881074  0.53729507    -0.23200
C172        C  0.12520643  0.24473698  0.03375715     0.19000
C173        C  0.15258072  0.23937043  0.50569547     0.16200
C174        C  0.15563494  0.20821973  0.48030012    -0.18300
C175        C  0.17564379  0.26582677  0.00241894    -0.20100
C176        C  0.17108421  0.29755138  0.02576056    -0.12700
C177        C  0.14328481  0.30325035  0.05227511     0.04000
C178        C  0.12087088  0.27638731  0.05681807    -0.24800
H179        H  0.08575090  0.16939757  0.51324981     0.09100
H180        H  0.08089638  0.22257603  0.05883810     0.12700
H181        H  0.17580489  0.20453765  0.45712182     0.12600
H182        H  0.19687073  0.26220577  0.98126131     0.12400
H183        H  0.18887397  0.31780370  0.02236951     0.12900
H184        H  0.09964977  0.28024418  0.07800289     0.14900
N185        N  0.99893447  0.03300889  0.94043994    -0.36500
N186        N  0.04874356  0.49671605  0.49454460    -0.57100
N187        N  0.49905382  0.46380581  0.55018835    -0.36500
N188        N  0.44916153  0.49962573  0.49600141    -0.57100
C189        C  0.02518279  0.05236916  0.93046835     0.27100
C190        C  0.47268629  0.05309578  0.93022612     0.27100
C191        C  0.02512563  0.44369142  0.56123825     0.27100
C192        C  0.47267324  0.44553826  0.56259423     0.27100
C193        C  0.06812447  0.01465678  0.96572134     0.35700
C194        C  0.06836208  0.47652262  0.52130828     0.35700
C195        C  0.42959090  0.01839119  0.96746046     0.35700
C196        C  0.42965517  0.48177268  0.52474349     0.35700
C197        C  0.01532629  0.08493003  0.91434861    -0.21800
C198        C  0.48242880  0.08536110  0.91413333    -0.21800
C199        C  0.01512185  0.41242884  0.58014900    -0.21800
C200        C  0.48223603  0.41355665  0.58096078    -0.21800
C201        C  0.09999840  0.00500015  0.97344716    -0.22900
C202        C  0.10023681  0.48182650  0.50927755    -0.22900
C203        C  0.39763106  0.01179544  0.97764137    -0.22900
C204        C  0.39767846  0.48983642  0.51469030    -0.22900
C205        C  0.05793710  0.04209703  0.93593568    -0.18200
C206        C  0.43998995  0.04392607  0.93558167    -0.18200
C207        C  0.44002050  0.45611217  0.55715988    -0.18200
C208        C  0.05790405  0.45200959  0.55462363    -0.18200
H209        H  0.03012373  0.10691155  0.90534511     0.14700
H210        H  0.46749049  0.10770540  0.90498439     0.14700
H211        H  0.02989532  0.39033577  0.59080063     0.14700
H212        H  0.46720537  0.39236775  0.59222265     0.14700
H213        H  0.12127472  0.01388771  0.95585541     0.13000
H214        H  0.12182780  0.47026699  0.52393499     0.13000
H215        H  0.37608479  0.02198803  0.96117380     0.13000
H216        H  0.37613398  0.48093593  0.53152103     0.13000
H217        H  0.99886932  0.00687648  0.95032768     0.26200
H218        H  0.49931656  0.48949146  0.53848483     0.26200
In219      In  0.12390881  0.39118546  0.62857831     1.36900
C220        C  0.08210512  0.43115804  0.58167258     0.77700
O221        O  0.13846904  0.42680626  0.68565004    -0.60800
O222        O  0.16809885  0.42394179  0.62630498    -0.51700
C223        C  0.11748064  0.34685617  0.69726931     0.70300
O224        O  0.09301977  0.35984664  0.67684659    -0.46500
C225        C  0.13684540  0.33653145  0.57619214     0.75000
O226        O  0.07802977  0.42309069  0.62351887    -0.58400
O227        O  0.15795592  0.35935285  0.58410775    -0.48500
O228        O  0.10768119  0.41896852  0.56449556    -0.54800
C229        C  0.16411884  0.43621498  0.66637506     0.85200
O230        O  0.14424666  0.35851797  0.68438898    -0.56700
O231        O  0.10927793  0.34355441  0.59203228    -0.60000
In232      In  0.12424552  0.10989172  0.87943893     1.36900
C233        C  0.16644381  0.06912814  0.83487380     0.77700
O234        O  0.10831761  0.07321041  0.93443987    -0.60800
O235        O  0.07920381  0.07807814  0.87442430    -0.51700
C236        C  0.13016820  0.15426107  0.94862039     0.70300
O237        O  0.15475617  0.14109183  0.92912301    -0.46500
C238        C  0.11262083  0.16448010  0.82538104     0.75000
O239        O  0.16961978  0.07677682  0.87702354    -0.58400
O240        O  0.09131221  0.14186605  0.83301717    -0.48500
O241        O  0.14153678  0.08205744  0.81627248    -0.54800
C242        C  0.08276611  0.06455579  0.91396794     0.85200
O243        O  0.10355650  0.14253246  0.93491996    -0.56700
O244        O  0.13990273  0.15749226  0.84263728    -0.60000
N245        N  0.24756047  0.46904282  0.69055055    -0.36500
N246        N  0.29843844  0.00661817  0.73861334    -0.57100
N247        N  0.24988349  0.03884672  0.79865023    -0.36500
N248        N  0.19872450  0.50331922  0.74827011    -0.57100
C249        C  0.27397929  0.45022148  0.67767598     0.27100
C250        C  0.22157672  0.44878555  0.68252397     0.27100
C251        C  0.27633483  0.05673932  0.81197763     0.27100
C252        C  0.22375730  0.05609833  0.81580389     0.27100
C253        C  0.31690179  0.48925086  0.70754294     0.35700
C254        C  0.31843737  0.02732413  0.76307347     0.35700
C255        C  0.17878049  0.48449389  0.72112677     0.35700
C256        C  0.17974029  0.02330021  0.77583455     0.35700
C257        C  0.26456799  0.41774710  0.66189167    -0.21800
C258        C  0.23174845  0.41682194  0.66500421    -0.21800
C259        C  0.26671407  0.08541975  0.83795926    -0.21800
C260        C  0.23393879  0.08500805  0.84034923    -0.21800
C261        C  0.34854997  0.49995539  0.71115683    -0.22900
C262        C  0.34968849  0.02333128  0.74664827    -0.22900
C263        C  0.14699331  0.49295224  0.73121606    -0.22900
C264        C  0.14759150  0.01673839  0.76626896    -0.22900
C265        C  0.30648071  0.46110467  0.67974994    -0.18200
C266        C  0.18877881  0.45807204  0.68982413    -0.18200
C267        C  0.19076930  0.04799412  0.80870760    -0.18200
C268        C  0.30897264  0.04949053  0.80010464    -0.18200
H269        H  0.27967234  0.39622125  0.65058162     0.14700
H270        H  0.21725737  0.39444268  0.65656661     0.14700
H271        H  0.28135577  0.10612509  0.85166491     0.14700
H272        H  0.21947075  0.10521746  0.85640172     0.14700
H273        H  0.36913956  0.49126503  0.69132276     0.13000
H274        H  0.37159130  0.03521178  0.75865361     0.13000
H275        H  0.12524428  0.48309515  0.71568215     0.13000
H276        H  0.12635934  0.02761147  0.78252104     0.13000
H277        H  0.24702751  0.49515641  0.70038796     0.26200
H278        H  0.24986077  0.01519895  0.78110612     0.26200
In279      In  0.37319396  0.39345353  0.62082008     1.36900
C280        C  0.33124113  0.43858795  0.65662725     0.77700
O281        O  0.34720217  0.35352697  0.66026682    -0.60800
O282        O  0.39676652  0.36156311  0.67722063    -0.51700
C283        C  0.37526781  0.34348656  0.55874890     0.70300
O284        O  0.34967010  0.36131153  0.56545145    -0.46500
C285        C  0.41534606  0.43525728  0.58189045     0.75000
O286        O  0.32722480  0.42528930  0.61705925    -0.58400
O287        O  0.41913586  0.42402130  0.62274625    -0.48500
O288        O  0.35727676  0.42969338  0.67634317    -0.54800
C289        C  0.37144402  0.34402033  0.68379365     0.85200
O290        O  0.39949509  0.35281328  0.58191006    -0.56700
O291        O  0.38959331  0.42584274  0.56263060    -0.60000
In292      In  0.37489452  0.11007461  0.87007924     1.36900
C293        C  0.41567048  0.06606019  0.91082983     0.77700
O294        O  0.39279629  0.15125440  0.91639784    -0.60800
O295        O  0.34234199  0.14175737  0.91700559    -0.51700
C296        C  0.38391248  0.16049398  0.81020961     0.70300
O297        O  0.40719950  0.14110348  0.82354739    -0.46500
C298        C  0.33399516  0.06909377  0.82614976     0.75000
O299        O  0.41999054  0.07728649  0.87032360    -0.58400
O300        O  0.33145161  0.07604570  0.86860324    -0.48500
O301        O  0.38999653  0.07676629  0.92940488    -0.54800
C302        C  0.36532685  0.16078553  0.93037479     0.85200
O303        O  0.35651187  0.15157927  0.82437078    -0.56700
O304        O  0.35846157  0.08182495  0.80735841    -0.60000
C305        C  0.37004506  0.31315268  0.71394798    -0.05100
C306        C  0.33994360  0.30198677  0.72975334    -0.05100
C307        C  0.33697776  0.26974291  0.75138761    -0.23200
C308        C  0.36403500  0.24789859  0.75704988     0.19000
C309        C  0.39468140  0.25919977  0.74265095     0.16200
C310        C  0.39756875  0.29205930  0.72153843    -0.18300
C311        C  0.42165310  0.23706173  0.74876212    -0.20100
C312        C  0.41826907  0.20420421  0.76931355    -0.12700
C313        C  0.38782553  0.19293898  0.78355839     0.04000
C314        C  0.36080659  0.21488990  0.77685673    -0.24800
H315        H  0.31845849  0.31785109  0.72414796     0.09100
H316        H  0.31338146  0.26152676  0.76264240     0.12700
H317        H  0.42079159  0.30036478  0.70890047     0.12600
H318        H  0.44535288  0.24526177  0.73799914     0.12400
H319        H  0.43947164  0.18789585  0.77477578     0.12900
H320        H  0.33720446  0.20668142  0.78816650     0.14900
C321        C  0.37708513  0.31265847  0.52858602    -0.05100
C322        C  0.40727542  0.30143063  0.51215449    -0.05100
C323        C  0.41060982  0.26957510  0.48950972    -0.23200
C324        C  0.38388661  0.24806736  0.48364561     0.19000
C325        C  0.35317958  0.25936260  0.99895454     0.16200
C326        C  0.34988956  0.29189127  0.52098746    -0.18300
C327        C  0.32657836  0.23749920  0.99286598    -0.20100
C328        C  0.33042240  0.20480721  0.97179790    -0.12700
C329        C  0.36095579  0.19342223  0.95684739     0.04000
C330        C  0.38755141  0.21528235  0.96306525    -0.24800
H331        H  0.42853017  0.31701030  0.51780564     0.09100
H332        H  0.43425702  0.26135421  0.47765730     0.12700
H333        H  0.32662142  0.30020723  0.03418152     0.12600
H334        H  0.30282911  0.24571149  0.00426826     0.12400
H335        H  0.30950286  0.18864424  0.96668372     0.12900
H336        H  0.41118813  0.20706770  0.45109456     0.14900
C337        C  0.11607991  0.31841159  0.73120443    -0.05100
C338        C  0.14134084  0.31453939  0.76319476    -0.05100
C339        C  0.14437874  0.28432240  0.78963967    -0.23200
C340        C  0.12260898  0.25707726  0.78372821     0.19000
C341        C  0.09637417  0.26105623  0.75280329     0.16200
C342        C  0.09298331  0.29206569  0.72708330    -0.18300
C343        C  0.07491513  0.23334010  0.74686166    -0.20100
C344        C  0.07986837  0.20178593  0.77057114    -0.12700
C345        C  0.10643704  0.19747522  0.80028039     0.04000
C346        C  0.12738442  0.22548496  0.80716683    -0.24800
H347        H  0.15944661  0.33449887  0.76659703     0.09100
H348        H  0.16450762  0.28170049  0.81337763     0.12700
H349        H  0.07378559  0.29469037  0.70179668     0.12600
H350        H  0.05464311  0.23586642  0.72337309     0.12400
H351        H  0.06327918  0.18059641  0.76514479     0.12900
H352        H  0.14766359  0.22261897  0.83064847     0.14900
C353        C  0.13127475  0.18303252  0.98220322    -0.05100
C354        C  0.10483766  0.18836600  0.01150400    -0.05100
C355        C  0.10193376  0.21880492  0.03730835    -0.23200
C356        C  0.12520384  0.24474020  0.53374798     0.19000
C357        C  0.15258082  0.23937036  0.00569872     0.16200
C358        C  0.15563470  0.20822080  0.98030089    -0.18300
C359        C  0.17564585  0.26582488  0.50241916    -0.20100
C360        C  0.17108665  0.29755002  0.52575997    -0.12700
C361        C  0.14328535  0.30325156  0.55226987     0.04000
C362        C  0.12086857  0.27639095  0.55680765    -0.24800
H363        H  0.08575799  0.16939035  0.01326437     0.09100
H364        H  0.08088904  0.22258452  0.55881991     0.12700
H365        H  0.17580240  0.20454139  0.95711795     0.12600
H366        H  0.19687450  0.26220172  0.48126556     0.12400
H367        H  0.18887862  0.31780043  0.52237285     0.12900
H368        H  0.09964577  0.28024972  0.57798848     0.14900
N369        N  0.99893562  0.53301171  0.44044495    -0.36500
N370        N  0.04874164  0.99671186  0.99453802    -0.57100
N371        N  0.49905097  0.96380471  0.05018897    -0.36500
N372        N  0.44915932  0.99962635  0.99600253    -0.57100
C373        C  0.02518341  0.55237329  0.43047577     0.27100
C374        C  0.47268701  0.55309765  0.43023022     0.27100
C375        C  0.02512258  0.94369040  0.06123789     0.27100
C376        C  0.47267039  0.94553730  0.06259513     0.27100
C377        C  0.06812569  0.51466082  0.46572687     0.35700
C378        C  0.06835955  0.97651882  0.02130294     0.35700
C379        C  0.42959242  0.51839084  0.46746093     0.35700
C380        C  0.42965232  0.98177055  0.02474107     0.35700
C381        C  0.01532628  0.58493459  0.41435821    -0.21800
C382        C  0.48242864  0.58536420  0.41414081    -0.21800
C383        C  0.01511901  0.91242809  0.08015022    -0.21800
C384        C  0.48223338  0.91355566  0.08096211    -0.21800
C385        C  0.09999970  0.50500404  0.47345138    -0.22900
C386        C  0.10023465  0.98182245  0.00927324    -0.22900
C387        C  0.39763273  0.51179750  0.47764606    -0.22900
C388        C  0.39767572  0.98983212  0.01468356    -0.22900
C389        C  0.05793769  0.54210103  0.43594141    -0.18200
C390        C  0.43999104  0.54392593  0.43558269    -0.18200
C391        C  0.44001742  0.95611035  0.05715883    -0.18200
C392        C  0.05790088  0.95200758  0.05462043    -0.18200
H393        H  0.03012348  0.60691676  0.40535647     0.14700
H394        H  0.46748940  0.60770786  0.40499204     0.14700
H395        H  0.02989250  0.89033497  0.09080175     0.14700
H396        H  0.46720308  0.89236633  0.09222365     0.14700
H397        H  0.12127569  0.51389136  0.45585872     0.13000
H398        H  0.12182527  0.97026299  0.02393199     0.13000
H399        H  0.37608588  0.52199117  0.46118130     0.13000
H400        H  0.37613053  0.98092889  0.03150974     0.13000
H401        H  0.99887144  0.50687888  0.45033019     0.26200
H402        H  0.49931416  0.98949055  0.03848377     0.26200
In403      In  0.12390482  0.89118630  0.12857733     1.36900
C404        C  0.08210134  0.93115663  0.08166985     0.77700
O405        O  0.13846564  0.92680837  0.18564887    -0.60800
O406        O  0.16809282  0.92394656  0.12630120    -0.51700
C407        C  0.11747853  0.84685716  0.19726923     0.70300
O408        O  0.09301693  0.85984654  0.17684690    -0.46500
C409        C  0.13684338  0.83653109  0.07619456     0.75000
O410        O  0.07802689  0.92309273  0.12351753    -0.58400
O411        O  0.15795294  0.85935400  0.08410823    -0.48500
O412        O  0.10767566  0.91896378  0.06449179    -0.54800
C413        C  0.16411440  0.93621871  0.16637219     0.85200
O414        O  0.14424398  0.85851982  0.18438791    -0.56700
O415        O  0.10927547  0.84355340  0.09203366    -0.60000
In416      In  0.12424437  0.60989315  0.37943737     1.36900
C417        C  0.16644229  0.56912818  0.33487526     0.77700
O418        O  0.10831870  0.57321301  0.43443998    -0.60800
O419        O  0.07920165  0.57808146  0.37442742    -0.51700
C420        C  0.13016690  0.65426184  0.44861725     0.70300
O421        O  0.15475508  0.64109360  0.42911929    -0.46500
C422        C  0.11262146  0.66448171  0.32538084     0.75000
O423        O  0.16961728  0.57677680  0.37702518    -0.58400
O424        O  0.09131189  0.64186871  0.33301716    -0.48500
O425        O  0.14153595  0.58205798  0.31627255    -0.54800
C426        C  0.08276591  0.56455913  0.41397087     0.85200
O427        O  0.10355531  0.64253222  0.43491809    -0.56700
O428        O  0.13990350  0.65749269  0.34263578    -0.60000
N429        N  0.24755712  0.96904853  0.19054147    -0.36500
N430        N  0.29843580  0.50661973  0.23861058    -0.57100
N431        N  0.24988209  0.53884790  0.29865007    -0.36500
N432        N  0.19872308  0.00331902  0.24827199    -0.57100
C433        C  0.27397583  0.95022620  0.17766757     0.27100
C434        C  0.22157315  0.94879070  0.18251611     0.27100
C435        C  0.27633337  0.55673915  0.31197687     0.27100
C436        C  0.22375638  0.55609641  0.31580754     0.27100
C437        C  0.31689847  0.98925397  0.20753754     0.35700
C438        C  0.31843495  0.52732688  0.26306865     0.35700
C439        C  0.17877857  0.98449638  0.22112573     0.35700
C440        C  0.17973904  0.52330220  0.27583399     0.35700
C441        C  0.26456401  0.91775208  0.16188399    -0.21800
C442        C  0.23174456  0.91682743  0.16499604    -0.21800
C443        C  0.26671306  0.58541824  0.33796296    -0.21800
C444        C  0.23393810  0.58500500  0.34035675    -0.21800
C445        C  0.34854605  0.99996065  0.21114796    -0.22900
C446        C  0.34968522  0.52333635  0.24663939    -0.22900
C447        C  0.14699181  0.99295765  0.23121180    -0.22900
C448        C  0.14759015  0.51674410  0.26626397    -0.22900
C449        C  0.30647761  0.96110783  0.17974432    -0.18200
C450        C  0.18877549  0.95807586  0.18982053    -0.18200
C451        C  0.19076805  0.54799396  0.30871015    -0.18200
C452        C  0.30897124  0.54949190  0.30010216    -0.18200
H453        H  0.27966780  0.89622513  0.15057624     0.14700
H454        H  0.21725358  0.89444788  0.15655967     0.14700
H455        H  0.28135460  0.60612377  0.35166836     0.14700
H456        H  0.21947042  0.60521322  0.35641241     0.14700
H457        H  0.36913505  0.99127239  0.19131114     0.13000
H458        H  0.37158828  0.53521809  0.25864124     0.13000
H459        H  0.12524293  0.98310260  0.21567511     0.13000
H460        H  0.12635765  0.52761911  0.28251277     0.13000
H461        H  0.24702459  0.99516058  0.20037928     0.26200
H462        H  0.24985933  0.51519614  0.28109977     0.26200
In463      In  0.37319172  0.89345174  0.12082260     1.36900
C464        C  0.33123855  0.93858942  0.15662405     0.77700
O465        O  0.34719905  0.85352708  0.16027321    -0.60800
O466        O  0.39676348  0.86156205  0.17722627    -0.51700
C467        C  0.37526673  0.84348518  0.05875117     0.70300
O468        O  0.34966834  0.86130879  0.06545444    -0.46500
C469        C  0.41534316  0.93525536  0.08189029     0.75000
O470        O  0.32722204  0.92528682  0.11705841    -0.58400
O471        O  0.41913391  0.92401887  0.12274578    -0.48500
O472        O  0.35727482  0.92969723  0.17634025    -0.54800
C473        C  0.37144033  0.84402075  0.18380125     0.85200
O474        O  0.39949390  0.85281307  0.08191157    -0.56700
O475        O  0.38958980  0.92584108  0.06263190    -0.60000
In476      In  0.37489384  0.61007258  0.37008214     1.36900
C477        C  0.41567120  0.56605949  0.41083146     0.77700
O478        O  0.39279883  0.65125804  0.41638947    -0.60800
O479        O  0.34234635  0.64175038  0.41702042    -0.51700
C480        C  0.38390598  0.66049333  0.31021339     0.70300
O481        O  0.40719402  0.64110230  0.32354636    -0.46500
C482        C  0.33399429  0.56909316  0.32614927     0.75000
O483        O  0.41999003  0.57728455  0.37032445    -0.58400
O484        O  0.33144915  0.57604609  0.36860238    -0.48500
O485        O  0.38999801  0.57676623  0.42940791    -0.54800
C486        C  0.36533075  0.66078391  0.43037802     0.85200
O487        O  0.35650647  0.65157917  0.32437980    -0.56700
O488        O  0.35846288  0.58182176  0.30736066    -0.60000
C489        C  0.37004030  0.81315454  0.21395828    -0.05100
C490        C  0.33993899  0.80199125  0.22976810    -0.05100
C491        C  0.33697222  0.76974709  0.25140197    -0.23200
C492        C  0.36402822  0.74789993  0.25705876     0.19000
C493        C  0.39467438  0.75919905  0.24265579     0.16200
C494        C  0.39756279  0.79205887  0.22154498    -0.18300
C495        C  0.42164503  0.73705880  0.24876107    -0.20100
C496        C  0.41826068  0.70420154  0.26931246    -0.12700
C497        C  0.38781762  0.69293811  0.28356156     0.04000
C498        C  0.36079919  0.71489065  0.27686418    -0.24800
H499        H  0.31845474  0.81785759  0.22416588     0.09100
H500        H  0.31337614  0.76153273  0.26266011     0.12700
H501        H  0.42078540  0.80036258  0.20890417     0.12600
H502        H  0.44534447  0.74525720  0.23799433     0.12400
H503        H  0.43946285  0.68789198  0.27477157     0.12900
H504        H  0.33719745  0.70668326  0.28817699     0.14900
C505        C  0.37708481  0.81265674  0.02858941    -0.05100
C506        C  0.40727590  0.80142612  0.01216388    -0.05100
C507        C  0.41061010  0.76957000  0.98952064    -0.23200
C508        C  0.38388566  0.74806483  0.98365149     0.19000
C509        C  0.35318117  0.75936187  0.49895549     0.16200
C510        C  0.34988844  0.79189191  0.02098632    -0.18300
C511        C  0.32658174  0.73749453  0.49287526    -0.20100
C512        C  0.33042695  0.70480186  0.47180920    -0.12700
C513        C  0.36095952  0.69342086  0.45685016     0.04000
C514        C  0.38755312  0.71528533  0.46305836    -0.24800
H515        H  0.42853134  0.81700397  0.01781872     0.09100
H516        H  0.43425783  0.76134689  0.97767282     0.12700
H517        H  0.32662310  0.80020431  0.53418737     0.12600
H518        H  0.30283309  0.74570390  0.50428350     0.12400
H519        H  0.30950877  0.68863551  0.46670258     0.12900
H520        H  0.41118717  0.70706167  0.95110802     0.14900
C521        C  0.11607922  0.81841261  0.23120463    -0.05100
C522        C  0.14134006  0.81454147  0.26319550    -0.05100
C523        C  0.14437895  0.78432439  0.28964029    -0.23200
C524        C  0.12261019  0.75707838  0.28372817     0.19000
C525        C  0.09637513  0.76105683  0.25280354     0.16200
C526        C  0.09298363  0.79206588  0.22708330    -0.18300
C527        C  0.07491600  0.73334082  0.24686267    -0.20100
C528        C  0.07986923  0.70178720  0.27057268    -0.12700
C529        C  0.10643838  0.69747664  0.30028071     0.04000
C530        C  0.12738637  0.72548598  0.30716616    -0.24800
H531        H  0.15944494  0.83450183  0.26659829     0.09100
H532        H  0.16450762  0.78170323  0.31337875     0.12700
H533        H  0.07378592  0.79468979  0.20179655     0.12600
H534        H  0.05464369  0.73586698  0.22337461     0.12400
H535        H  0.06327973  0.68059781  0.26514743     0.12900
H536        H  0.14766606  0.72261978  0.33064688     0.14900
C537        C  0.13127279  0.68303391  0.48219867    -0.05100
C538        C  0.10483274  0.68837103  0.51149287    -0.05100
C539        C  0.10192862  0.71881078  0.53729499    -0.23200
C540        C  0.12520638  0.74473708  0.03375716     0.19000
C541        C  0.15258081  0.73937049  0.50569533     0.16200
C542        C  0.15563505  0.70821976  0.48030002    -0.18300
C543        C  0.17564370  0.76582684  0.00241884    -0.20100
C544        C  0.17108414  0.79755148  0.02576039    -0.12700
C545        C  0.14328480  0.80325047  0.05227508     0.04000
C546        C  0.12087084  0.77638743  0.05681807    -0.24800
H547        H  0.08575095  0.66939766  0.51324973     0.09100
H548        H  0.08089632  0.72257611  0.05883807     0.12700
H549        H  0.17580502  0.70453767  0.45712177     0.12600
H550        H  0.19687064  0.76220577  0.98126123     0.12400
H551        H  0.18887389  0.81780379  0.02236922     0.12900
H552        H  0.09964972  0.78024430  0.07800288     0.14900
N553        N  0.99893443  0.53300887  0.94044017    -0.36500
N554        N  0.04874343  0.99671589  0.49454467    -0.57100
N555        N  0.49905386  0.96380586  0.55018840    -0.36500
N556        N  0.44916155  0.99962589  0.49600151    -0.57100
C557        C  0.02518278  0.55236912  0.93046844     0.27100
C558        C  0.47268632  0.55309587  0.93022608     0.27100
C559        C  0.02512549  0.94369122  0.56123833     0.27100
C560        C  0.47267326  0.94553830  0.56259416     0.27100
C561        C  0.06812453  0.51465672  0.96572138     0.35700
C562        C  0.06836193  0.97652250  0.52130844     0.35700
C563        C  0.42959088  0.51839127  0.96746033     0.35700
C564        C  0.42965520  0.98177283  0.52474355     0.35700
C565        C  0.01532627  0.58492996  0.91434860    -0.21800
C566        C  0.48242886  0.58536118  0.91413326    -0.21800
C567        C  0.01512171  0.91242872  0.58014926    -0.21800
C568        C  0.48223603  0.91355661  0.58096044    -0.21800
C569        C  0.09999848  0.50500006  0.97344717    -0.22900
C570        C  0.10023666  0.98182640  0.50927784    -0.22900
C571        C  0.39763102  0.51179540  0.97764102    -0.22900
C572        C  0.39767849  0.98983656  0.51469029    -0.22900
C573        C  0.05793711  0.54209696  0.93593573    -0.18200
C574        C  0.43998998  0.54392613  0.93558157    -0.18200
C575        C  0.44002053  0.95611229  0.55715991    -0.18200
C576        C  0.05790390  0.95200940  0.55462371    -0.18200
H577        H  0.03012368  0.60691148  0.90534500     0.14700
H578        H  0.46749058  0.60770552  0.90498436     0.14700
H579        H  0.02989519  0.89033569  0.59080104     0.14700
H580        H  0.46720535  0.89236770  0.59222221     0.14700
H581        H  0.12127483  0.51388758  0.95585542     0.13000
H582        H  0.12182760  0.97026682  0.52393532     0.13000
H583        H  0.37608475  0.52198794  0.96117343     0.13000
H584        H  0.37613397  0.98093602  0.53152093     0.13000
H585        H  0.99886925  0.50687663  0.95032803     0.26200
H586        H  0.49931661  0.98949154  0.53848501     0.26200
In587      In  0.12390880  0.89118542  0.62857843     1.36900
C588        C  0.08210499  0.93115785  0.58167262     0.77700
O589        O  0.13846905  0.92680611  0.68565021    -0.60800
O590        O  0.16809875  0.92394188  0.62630494    -0.51700
C591        C  0.11748046  0.84685616  0.69726940     0.70300
O592        O  0.09301966  0.85984666  0.67684656    -0.46500
C593        C  0.13684549  0.83653146  0.57619219     0.75000
O594        O  0.07802975  0.92309062  0.62351896    -0.58400
O595        O  0.15795600  0.85935282  0.58410798    -0.48500
O596        O  0.10768101  0.91896828  0.56449553    -0.54800
C597        C  0.16411878  0.93621494  0.66637510     0.85200
O598        O  0.14424653  0.85851798  0.68438928    -0.56700
O599        O  0.10927803  0.84355437  0.59203237    -0.60000
In600      In  0.12424556  0.60989169  0.87943914     1.36900
C601        C  0.16644375  0.56912822  0.83487382     0.77700
O602        O  0.10831764  0.57321026  0.93443986    -0.60800
O603        O  0.07920382  0.57807810  0.87442435    -0.51700
C604        C  0.13016824  0.65426105  0.94862054     0.70300
O605        O  0.15475624  0.64109167  0.92912338    -0.46500
C606        C  0.11262078  0.66448009  0.82538137     0.75000
O607        O  0.16961983  0.57677692  0.87702353    -0.58400
O608        O  0.09131222  0.64186594  0.83301743    -0.48500
O609        O  0.14153668  0.58205751  0.81627258    -0.54800
C610        C  0.08276612  0.56455571  0.91396796     0.85200
O611        O  0.10355654  0.64253253  0.93491998    -0.56700
O612        O  0.13990268  0.65749234  0.84263765    -0.60000
N613        N  0.24756039  0.96904267  0.69055058    -0.36500
N614        N  0.29843838  0.50661849  0.73861315    -0.57100
N615        N  0.24988343  0.53884686  0.79865021    -0.36500
N616        N  0.19872448  0.00331912  0.74827009    -0.57100
C617        C  0.27397920  0.95022132  0.67767601     0.27100
C618        C  0.22157662  0.94878544  0.68252391     0.27100
C619        C  0.27633477  0.55673948  0.81197760     0.27100
C620        C  0.22375724  0.55609851  0.81580384     0.27100
C621        C  0.31690179  0.98925060  0.70754301     0.35700
C622        C  0.31843732  0.52732428  0.76307352     0.35700
C623        C  0.17878044  0.98449385  0.72112673     0.35700
C624        C  0.17974027  0.52330023  0.77583462     0.35700
C625        C  0.26456786  0.91774698  0.66189159    -0.21800
C626        C  0.23174830  0.91682187  0.66500397    -0.21800
C627        C  0.26671402  0.58541995  0.83795911    -0.21800
C628        C  0.23393873  0.58500829  0.84034907    -0.21800
C629        C  0.34854995  0.99995524  0.71115673    -0.22900
C630        C  0.34968847  0.52333132  0.74664848    -0.22900
C631        C  0.14699327  0.99295231  0.73121595    -0.22900
C632        C  0.14759148  0.51673825  0.76626915    -0.22900
C633        C  0.30648064  0.96110448  0.67974995    -0.18200
C634        C  0.18877874  0.95807196  0.68982415    -0.18200
C635        C  0.19076925  0.54799422  0.80870758    -0.18200
C636        C  0.30897259  0.54949066  0.80010472    -0.18200
H637        H  0.27967220  0.89622110  0.65058155     0.14700
H638        H  0.21725720  0.89444267  0.65656618     0.14700
H639        H  0.28135577  0.60612530  0.85166465     0.14700
H640        H  0.21947069  0.60521777  0.85640142     0.14700
H641        H  0.36913952  0.99126493  0.69132258     0.13000
H642        H  0.37159131  0.53521165  0.75865399     0.13000
H643        H  0.12524422  0.98309519  0.71568214     0.13000
H644        H  0.12635929  0.52761123  0.78252127     0.13000
H645        H  0.24702743  0.99515625  0.70038805     0.26200
H646        H  0.24986070  0.51519914  0.78110619     0.26200
In647      In  0.37319402  0.89345353  0.62081989     1.36900
C648        C  0.33124106  0.93858777  0.65662726     0.77700
O649        O  0.34720226  0.85352697  0.66026651    -0.60800
O650        O  0.39676663  0.86156310  0.67722035    -0.51700
C651        C  0.37526779  0.84348654  0.55874860     0.70300
O652        O  0.34967011  0.86131150  0.56545126    -0.46500
C653        C  0.41534608  0.93525737  0.58189037     0.75000
O654        O  0.32722480  0.92528918  0.61705920    -0.58400
O655        O  0.41913582  0.92402143  0.62274619    -0.48500
O656        O  0.35727668  0.92969320  0.67634321    -0.54800
C657        C  0.37144412  0.84402032  0.68379334     0.85200
O658        O  0.39949509  0.85281323  0.58190974    -0.56700
O659        O  0.38959339  0.92584276  0.56263040    -0.60000
In660      In  0.37489456  0.61007471  0.87007940     1.36900
C661        C  0.41567053  0.56606026  0.91082979     0.77700
O662        O  0.39279630  0.65125456  0.91639796    -0.60800
O663        O  0.34234203  0.64175736  0.91700589    -0.51700
C664        C  0.38391255  0.66049397  0.81020957     0.70300
O665        O  0.40719954  0.64110344  0.82354736    -0.46500
C666        C  0.33399511  0.56909391  0.82614988     0.75000
O667        O  0.41999058  0.57728660  0.87032359    -0.58400
O668        O  0.33145154  0.57604591  0.86860335    -0.48500
O669        O  0.38999661  0.57676635  0.92940493    -0.54800
C670        C  0.36532685  0.66078561  0.93037498     0.85200
O671        O  0.35651195  0.65157934  0.82437087    -0.56700
O672        O  0.35846155  0.58182504  0.80735855    -0.60000
C673        C  0.37004512  0.81315269  0.71394772    -0.05100
C674        C  0.33994367  0.80198685  0.72975322    -0.05100
C675        C  0.33697780  0.76974293  0.75138736    -0.23200
C676        C  0.36403503  0.74789855  0.75704958     0.19000
C677        C  0.39468140  0.75919968  0.74265048     0.16200
C678        C  0.39756878  0.79205923  0.72153803    -0.18300
C679        C  0.42165307  0.73706157  0.74876149    -0.20100
C680        C  0.41826908  0.70420411  0.76931314    -0.12700
C681        C  0.38782558  0.69293894  0.78355823     0.04000
C682        C  0.36080665  0.71488990  0.77685663    -0.24800
H683        H  0.31845860  0.81785126  0.72414798     0.09100
H684        H  0.31338151  0.76152679  0.76264219     0.12700
H685        H  0.42079159  0.80036468  0.70889998     0.12600
H686        H  0.44535282  0.74526159  0.73799833     0.12400
H687        H  0.43947167  0.68789577  0.77477539     0.12900
H688        H  0.33720457  0.70668149  0.78816665     0.14900
C689        C  0.37708508  0.81265847  0.52858569    -0.05100
C690        C  0.40727535  0.80143065  0.51215415    -0.05100
C691        C  0.41060981  0.76957506  0.48950957    -0.23200
C692        C  0.38388663  0.74806731  0.48364542     0.19000
C693        C  0.35317948  0.75936270  0.99895461     0.16200
C694        C  0.34988955  0.79189117  0.52098729    -0.18300
C695        C  0.32657828  0.73749923  0.99286625    -0.20100
C696        C  0.33042232  0.70480724  0.97179819    -0.12700
C697        C  0.36095570  0.69342234  0.95684747     0.04000
C698        C  0.38755128  0.71528256  0.96306510    -0.24800
H699        H  0.42853007  0.81701039  0.51780517     0.09100
H700        H  0.43425706  0.76135414  0.47765735     0.12700
H701        H  0.32662132  0.80020731  0.03418166     0.12600
H702        H  0.30282907  0.74571150  0.00426872     0.12400
H703        H  0.30950277  0.68864422  0.96668425     0.12900
H704        H  0.41118822  0.70706756  0.45109466     0.14900
C705        C  0.11607966  0.81841157  0.73120448    -0.05100
C706        C  0.14134044  0.81453952  0.76319507    -0.05100
C707        C  0.14437839  0.78432256  0.78964003    -0.23200
C708        C  0.12260877  0.75707731  0.78372847     0.19000
C709        C  0.09637406  0.76105615  0.75280332     0.16200
C710        C  0.09298320  0.79206554  0.72708317    -0.18300
C711        C  0.07491517  0.73333991  0.74686157    -0.20100
C712        C  0.07986844  0.70178578  0.77057116    -0.12700
C713        C  0.10643694  0.69747521  0.80028070     0.04000
C714        C  0.12738424  0.72548503  0.80716719    -0.24800
H715        H  0.15944611  0.83449909  0.76659751     0.09100
H716        H  0.16450718  0.78170077  0.81337815     0.12700
H717        H  0.07378563  0.79469006  0.70179629     0.12600
H718        H  0.05464327  0.73586613  0.72337276     0.12400
H719        H  0.06327941  0.68059615  0.76514463     0.12900
H720        H  0.14766336  0.72261910  0.83064892     0.14900
C721        C  0.13127476  0.68303255  0.98220332    -0.05100
C722        C  0.10483765  0.68836603  0.01150405    -0.05100
C723        C  0.10193371  0.71880499  0.03730836    -0.23200
C724        C  0.12520392  0.74474025  0.53374784     0.19000
C725        C  0.15258076  0.73937043  0.00569874     0.16200
C726        C  0.15563469  0.70822084  0.98030097    -0.18300
C727        C  0.17564596  0.76582494  0.50241908    -0.20100
C728        C  0.17108674  0.79755009  0.52575992    -0.12700
C729        C  0.14328540  0.80325164  0.55226971     0.04000
C730        C  0.12086861  0.77639103  0.55680741    -0.24800
H731        H  0.08575803  0.66939033  0.01326441     0.09100
H732        H  0.08088913  0.72258459  0.55881979     0.12700
H733        H  0.17580242  0.70454145  0.95711807     0.12600
H734        H  0.19687466  0.76220178  0.48126558     0.12400
H735        H  0.18887875  0.81780046  0.52237294     0.12900
H736        H  0.09964580  0.78024980  0.57798821     0.14900
N737        N  0.49893564  0.03301171  0.44044493    -0.36500
N738        N  0.54874167  0.49671186  0.99453798    -0.57100
N739        N  0.99905092  0.46380472  0.05018903    -0.36500
N740        N  0.94915923  0.49962643  0.99600274    -0.57100
C741        C  0.52518343  0.05237330  0.43047584     0.27100
C742        C  0.97268701  0.05309775  0.43023043     0.27100
C743        C  0.52512258  0.44369043  0.06123794     0.27100
C744        C  0.97267035  0.44553730  0.06259510     0.27100
C745        C  0.56812566  0.01466084  0.46572699     0.35700
C746        C  0.56835956  0.47651892  0.02130305     0.35700
C747        C  0.92959240  0.01839108  0.46746135     0.35700
C748        C  0.92965225  0.48177065  0.02474131     0.35700
C749        C  0.51532633  0.08493465  0.41435843    -0.21800
C750        C  0.98242865  0.08536418  0.41414063    -0.21800
C751        C  0.51511903  0.41242817  0.08015040    -0.21800
C752        C  0.98223335  0.41355565  0.08096205    -0.21800
C753        C  0.59999967  0.00500418  0.47345168    -0.22900
C754        C  0.60023467  0.48182262  0.00927348    -0.22900
C755        C  0.89763271  0.01179791  0.47764669    -0.22900
C756        C  0.89767565  0.48983237  0.01468400    -0.22900
C757        C  0.55793769  0.04210101  0.43594143    -0.18200
C758        C  0.93999104  0.04392609  0.43558302    -0.18200
C759        C  0.94001738  0.45611032  0.05715887    -0.18200
C760        C  0.55790086  0.45200764  0.05462047    -0.18200
H761        H  0.53012352  0.10691685  0.40535684     0.14700
H762        H  0.96748945  0.10770779  0.40499155     0.14700
H763        H  0.52989255  0.39033509  0.09080204     0.14700
H764        H  0.96720307  0.39236631  0.09222356     0.14700
H765        H  0.62127565  0.01389154  0.45585905     0.13000
H766        H  0.62182528  0.47026325  0.02393240     0.13000
H767        H  0.87608584  0.02199166  0.46118209     0.13000
H768        H  0.87613045  0.48092916  0.03151016     0.13000
H769        H  0.49887144  0.00687884  0.45033006     0.26200
H770        H  0.99931415  0.48949069  0.03848379     0.26200
In771      In  0.62390469  0.39118633  0.12857739     1.36900
C772        C  0.58210129  0.43115668  0.08166987     0.77700
O773        O  0.63846569  0.42680834  0.18564896    -0.60800
O774        O  0.66809271  0.42394672  0.12630114    -0.51700
C775        C  0.61747840  0.34685720  0.19726930     0.70300
O776        O  0.59301677  0.35984671  0.17684716    -0.46500
C777        C  0.63684320  0.33653109  0.07619471     0.75000
O778        O  0.57802688  0.42309289  0.12351759    -0.58400
O779        O  0.65795276  0.35935401  0.08410834    -0.48500
O780        O  0.60767551  0.41896366  0.06449172    -0.54800
C781        C  0.66411437  0.43621881  0.16637218     0.85200
O782        O  0.64424385  0.35851975  0.18438782    -0.56700
O783        O  0.60927528  0.34355340  0.09203376    -0.60000
In784      In  0.62424428  0.10989324  0.37943731     1.36900
C785        C  0.66644222  0.06912831  0.33487502     0.77700
O786        O  0.60831873  0.07321296  0.43443993    -0.60800
O787        O  0.57920158  0.07808156  0.37442749    -0.51700
C788        C  0.63016677  0.15426198  0.44861715     0.70300
O789        O  0.65475498  0.14109378  0.42911920    -0.46500
C790        C  0.61262136  0.16448178  0.32538077     0.75000
O791        O  0.66961710  0.07677675  0.37702501    -0.58400
O792        O  0.59131185  0.14186866  0.33301687    -0.48500
O793        O  0.64153594  0.08205825  0.31627231    -0.54800
C794        C  0.58276590  0.06455912  0.41397088     0.85200
O795        O  0.60355519  0.14253236  0.43491797    -0.56700
O796        O  0.63990337  0.15749287  0.34263588    -0.60000
N797        N  0.74755711  0.46904858  0.19054141    -0.36500
N798        N  0.79843584  0.00661966  0.23861063    -0.57100
N799        N  0.74988210  0.03884790  0.29864998    -0.36500
N800        N  0.69872308  0.50331924  0.24827185    -0.57100
C801        C  0.77397580  0.45022620  0.17766765     0.27100
C802        C  0.72157313  0.44879080  0.18251609     0.27100
C803        C  0.77633339  0.05673912  0.31197686     0.27100
C804        C  0.72375637  0.05609652  0.31580730     0.27100
C805        C  0.81689839  0.48925393  0.20753762     0.35700
C806        C  0.81843499  0.02732683  0.26306867     0.35700
C807        C  0.67877857  0.48449655  0.22112565     0.35700
C808        C  0.67973905  0.02330232  0.27583378     0.35700
C809        C  0.76456400  0.41775203  0.16188421    -0.21800
C810        C  0.73174454  0.41682746  0.16499616    -0.21800
C811        C  0.76671306  0.08541823  0.33796288    -0.21800
C812        C  0.73393808  0.08500508  0.34035654    -0.21800
C813        C  0.84854598  0.49996052  0.21114819    -0.22900
C814        C  0.84968525  0.02333630  0.24663939    -0.22900
C815        C  0.64699182  0.49295779  0.23121179    -0.22900
C816        C  0.64759015  0.01674419  0.26626379    -0.22900
C817        C  0.80647756  0.46110781  0.17974435    -0.18200
C818        C  0.68877547  0.45807598  0.18982047    -0.18200
C819        C  0.69076803  0.04799412  0.30870986    -0.18200
C820        C  0.80897127  0.04949185  0.30010219    -0.18200
H821        H  0.77966779  0.39622505  0.15057661     0.14700
H822        H  0.71725354  0.39444792  0.15655979     0.14700
H823        H  0.78135464  0.10612370  0.35166837     0.14700
H824        H  0.71947038  0.10521325  0.35641225     0.14700
H825        H  0.86913500  0.49127217  0.19131149     0.13000
H826        H  0.87158829  0.03521805  0.25864131     0.13000
H827        H  0.62524294  0.48310269  0.21567515     0.13000
H828        H  0.62635765  0.02761921  0.28251256     0.13000
H829        H  0.74702461  0.49516078  0.20037915     0.26200
H830        H  0.74985933  0.01519618  0.28109976     0.26200
In831      In  0.87319166  0.39345177  0.12082249     1.36900
C832        C  0.83123847  0.43858944  0.15662400     0.77700
O833        O  0.84719906  0.35352697  0.16027302    -0.60800
O834        O  0.89676348  0.36156192  0.17722599    -0.51700
C835        C  0.87526645  0.34348538  0.05875071     0.70300
O836        O  0.84966811  0.36130900  0.06545422    -0.46500
C837        C  0.91534313  0.43525535  0.08189030     0.75000
O838        O  0.82722201  0.42528697  0.11705827    -0.58400
O839        O  0.91913393  0.42401878  0.12274574    -0.48500
O840        O  0.85727469  0.42969713  0.17634022    -0.54800
C841        C  0.87144036  0.34402061  0.18380103     0.85200
O842        O  0.89949370  0.35281323  0.08191094    -0.56700
O843        O  0.88958969  0.42584125  0.06263197    -0.60000
In844      In  0.87489377  0.11007253  0.37008230     1.36900
C845        C  0.91567122  0.06605961  0.41083173     0.77700
O846        O  0.89279861  0.15125807  0.41638956    -0.60800
O847        O  0.84234608  0.14175053  0.41702008    -0.51700
C848        C  0.88390604  0.16049320  0.31021339     0.70300
O849        O  0.90719405  0.14110217  0.32354647    -0.46500
C850        C  0.83399431  0.06909306  0.32614936     0.75000
O851        O  0.91998999  0.07728451  0.37032463    -0.58400
O852        O  0.83144924  0.07604577  0.36860253    -0.48500
O853        O  0.88999808  0.07676645  0.42940821    -0.54800
C854        C  0.86533047  0.16078405  0.43037778     0.85200
O855        O  0.85650653  0.15157909  0.32437982    -0.56700
O856        O  0.85846282  0.08182187  0.30736074    -0.60000
C857        C  0.87004037  0.31315441  0.21395812    -0.05100
C858        C  0.83993910  0.30199115  0.22976808    -0.05100
C859        C  0.83697236  0.26974699  0.25140199    -0.23200
C860        C  0.86402836  0.24789983  0.25705871     0.19000
C861        C  0.89467449  0.25919886  0.24265554     0.16200
C862        C  0.89756287  0.29205868  0.22154464    -0.18300
C863        C  0.92164513  0.23705854  0.24876073    -0.20100
C864        C  0.91826079  0.20420133  0.26931224    -0.12700
C865        C  0.88781773  0.19293796  0.28356146     0.04000
C866        C  0.86079932  0.21489056  0.27686416    -0.24800
H867        H  0.81845481  0.31785744  0.22416588     0.09100
H868        H  0.81337629  0.26153261  0.26266014     0.12700
H869        H  0.92078544  0.30036234  0.20890360     0.12600
H870        H  0.94534456  0.24525691  0.23799390     0.12400
H871        H  0.93946295  0.18789174  0.27477138     0.12900
H872        H  0.83719760  0.20668321  0.28817707     0.14900
C873        C  0.87708441  0.31265695  0.02858890    -0.05100
C874        C  0.90727544  0.30142649  0.01216296    -0.05100
C875        C  0.91060966  0.26957037  0.98951972    -0.23200
C876        C  0.88388526  0.24806511  0.98365080     0.19000
C877        C  0.85318080  0.25936206  0.49895517     0.16200
C878        C  0.84988808  0.29189194  0.02098622    -0.18300
C879        C  0.82658142  0.23749455  0.49287533    -0.20100
C880        C  0.83042666  0.20480188  0.47180923    -0.12700
C881        C  0.86095919  0.19342105  0.45684978     0.04000
C882        C  0.88755270  0.21528569  0.46305759    -0.24800
H883        H  0.92853084  0.31700447  0.01781750     0.09100
H884        H  0.93425735  0.26134735  0.97767168     0.12700
H885        H  0.82662288  0.30020435  0.53418758     0.12600
H886        H  0.80283282  0.24570379  0.50428391     0.12400
H887        H  0.80950854  0.18863539  0.46670290     0.12900
H888        H  0.91118681  0.20706208  0.95110719     0.14900
C889        C  0.61607911  0.31841267  0.23120469    -0.05100
C890        C  0.64133990  0.31454161  0.26319561    -0.05100
C891        C  0.64437872  0.28432456  0.28964049    -0.23200
C892        C  0.62261002  0.25707849  0.28372825     0.19000
C893        C  0.59637501  0.26105688  0.25280353     0.16200
C894        C  0.59298353  0.29206594  0.22708333    -0.18300
C895        C  0.57491593  0.23334082  0.24686256    -0.20100
C896        C  0.57986915  0.20178722  0.27057261    -0.12700
C897        C  0.60643825  0.19747671  0.30028071     0.04000
C898        C  0.62738620  0.22548609  0.30716624    -0.24800
H899        H  0.65944476  0.33450200  0.26659841     0.09100
H900        H  0.66450732  0.28170346  0.31337909     0.12700
H901        H  0.57378584  0.29468987  0.20179655     0.12600
H902        H  0.55464365  0.23586693  0.22337443     0.12400
H903        H  0.56327969  0.18059777  0.26514740     0.12900
H904        H  0.64766584  0.22261992  0.33064704     0.14900
C905        C  0.63127263  0.18303396  0.48219861    -0.05100
C906        C  0.60483260  0.18837103  0.51149286    -0.05100
C907        C  0.60192850  0.21881075  0.53729504    -0.23200
C908        C  0.62520623  0.24473716  0.03375716     0.19000
C909        C  0.65258069  0.23937045  0.50569537     0.16200
C910        C  0.65563491  0.20821976  0.48030003    -0.18300
C911        C  0.67564354  0.26582696  0.00241892    -0.20100
C912        C  0.67108399  0.29755155  0.02576059    -0.12700
C913        C  0.64328465  0.30325048  0.05227528     0.04000
C914        C  0.62087069  0.27638745  0.05681818    -0.24800
H915        H  0.58575081  0.16939766  0.51324970     0.09100
H916        H  0.58089624  0.22257612  0.05883816     0.12700
H917        H  0.67580488  0.20453767  0.45712176     0.12600
H918        H  0.69687047  0.26220594  0.98126127     0.12400
H919        H  0.68887371  0.31780389  0.02236947     0.12900
H920        H  0.59964958  0.28024430  0.07800302     0.14900
N921        N  0.49893449  0.03300886  0.94044001    -0.36500
N922        N  0.54874349  0.49671590  0.49454451    -0.57100
N923        N  0.99905392  0.46380588  0.55018844    -0.36500
N924        N  0.94916159  0.49962606  0.49600179    -0.57100
C925        C  0.52518281  0.05236917  0.93046856     0.27100
C926        C  0.97268629  0.05309585  0.93022611     0.27100
C927        C  0.52512555  0.44369138  0.56123822     0.27100
C928        C  0.97267332  0.44553831  0.56259416     0.27100
C929        C  0.56812456  0.01465676  0.96572143     0.35700
C930        C  0.56836200  0.47652253  0.52130827     0.35700
C931        C  0.92959085  0.01839138  0.96746058     0.35700
C932        C  0.92965526  0.48177305  0.52474394     0.35700
C933        C  0.51532628  0.08493006  0.91434890    -0.21800
C934        C  0.98242881  0.08536112  0.91413321    -0.21800
C935        C  0.51512180  0.41242888  0.58014918    -0.21800
C936        C  0.98223606  0.41355663  0.58096048    -0.21800
C937        C  0.59999852  0.00500021  0.97344739    -0.22900
C938        C  0.60023674  0.48182637  0.50927756    -0.22900
C939        C  0.89763099  0.01179571  0.97764157    -0.22900
C940        C  0.89767855  0.48983696  0.51469099    -0.22900
C941        C  0.55793714  0.04209700  0.93593574    -0.18200
C942        C  0.93998995  0.04392622  0.93558179    -0.18200
C943        C  0.94002058  0.45611233  0.55716006    -0.18200
C944        C  0.55790396  0.45200956  0.55462365    -0.18200
H945        H  0.53012373  0.10691161  0.90534551     0.14700
H946        H  0.96749049  0.10770542  0.90498431     0.14700
H947        H  0.52989533  0.39033589  0.59080095     0.14700
H948        H  0.96720535  0.39236773  0.59222221     0.14700
H949        H  0.62127488  0.01388784  0.95585577     0.13000
H950        H  0.62182773  0.47026683  0.52393499     0.13000
H951        H  0.87608473  0.02198845  0.96117419     0.13000
H952        H  0.87613407  0.48093652  0.53152180     0.13000
H953        H  0.49886936  0.00687643  0.95032763     0.26200
H954        H  0.99931669  0.48949160  0.53848498     0.26200
In955      In  0.62390876  0.39118543  0.62857833     1.36900
C956        C  0.58210500  0.43115803  0.58167261     0.77700
O957        O  0.63846913  0.42680605  0.68565017    -0.60800
O958        O  0.66809874  0.42394199  0.62630485    -0.51700
C959        C  0.61748046  0.34685620  0.69726938     0.70300
O960        O  0.59301963  0.35984664  0.67684653    -0.46500
C961        C  0.63684544  0.33653140  0.57619218     0.75000
O962        O  0.57802969  0.42309071  0.62351891    -0.58400
O963        O  0.65795597  0.35935275  0.58410798    -0.48500
O964        O  0.60768102  0.41896845  0.56449555    -0.54800
C965        C  0.66411881  0.43621499  0.66637505     0.85200
O966        O  0.64424651  0.35851802  0.68438920    -0.56700
O967        O  0.60927797  0.34355433  0.59203230    -0.60000
In968      In  0.62424548  0.10989182  0.87943901     1.36900
C969        C  0.66644379  0.06912837  0.83487373     0.77700
O970        O  0.60831760  0.07321044  0.93443990    -0.60800
O971        O  0.57920379  0.07807817  0.87442434    -0.51700
C972        C  0.63016806  0.15426125  0.94862029     0.70300
O973        O  0.65475607  0.14109189  0.92912313    -0.46500
C974        C  0.61262076  0.16448011  0.82538104     0.75000
O975        O  0.66961981  0.07677699  0.87702347    -0.58400
O976        O  0.59131215  0.14186606  0.83301722    -0.48500
O977        O  0.64153672  0.08205768  0.81627250    -0.54800
C978        C  0.58276612  0.06455579  0.91396796     0.85200
O979        O  0.60355636  0.14253275  0.93491970    -0.56700
O980        O  0.63990267  0.15749231  0.84263729    -0.60000
N981        N  0.74756047  0.46904266  0.69055060    -0.36500
N982        N  0.79843838  0.00661845  0.73861320    -0.57100
N983        N  0.74988345  0.03884691  0.79865023    -0.36500
N984        N  0.69872447  0.50331918  0.74827012    -0.57100
C985        C  0.77397926  0.45022128  0.67767605     0.27100
C986        C  0.72157667  0.44878548  0.68252390     0.27100
C987        C  0.77633479  0.05673955  0.81197751     0.27100
C988        C  0.72375727  0.05609858  0.81580378     0.27100
C989        C  0.81690183  0.48925055  0.70754316     0.35700
C990        C  0.81843733  0.02732425  0.76307350     0.35700
C991        C  0.67878045  0.48449387  0.72112677     0.35700
C992        C  0.67974026  0.02330040  0.77583451     0.35700
C993        C  0.76456790  0.41774695  0.66189162    -0.21800
C994        C  0.73174834  0.41682188  0.66500401    -0.21800
C995        C  0.76671406  0.08542008  0.83795898    -0.21800
C996        C  0.73393877  0.08500841  0.84034896    -0.21800
C997        C  0.84855000  0.49995515  0.71115694    -0.22900
C998        C  0.84968848  0.02333123  0.74664849    -0.22900
C999        C  0.64699326  0.49295230  0.73121595    -0.22900
C1000       C  0.64759146  0.01673850  0.76626903    -0.22900
C1001       C  0.80648069  0.46110443  0.67975007    -0.18200
C1002       C  0.68877877  0.45807202  0.68982413    -0.18200
C1003       C  0.69076927  0.04799437  0.80870747    -0.18200
C1004       C  0.80897260  0.04949069  0.80010464    -0.18200
H1005       H  0.77967223  0.39622104  0.65058161     0.14700
H1006       H  0.71725721  0.39444268  0.65656627     0.14700
H1007       H  0.78135581  0.10612546  0.85166442     0.14700
H1008       H  0.71947071  0.10521791  0.85640126     0.14700
H1009       H  0.86913956  0.49126489  0.69132273     0.13000
H1010       H  0.87159133  0.03521157  0.75865398     0.13000
H1011       H  0.62524424  0.48309520  0.71568200     0.13000
H1012       H  0.62635929  0.02761156  0.78252111     0.13000
H1013       H  0.74702753  0.49515620  0.70038813     0.26200
H1014       H  0.74986072  0.01519901  0.78110621     0.26200
In1015     In  0.87319391  0.39345348  0.62081983     1.36900
C1016       C  0.83124107  0.43858776  0.65662728     0.77700
O1017       O  0.84720230  0.35352672  0.66026643    -0.60800
O1018       O  0.89676667  0.36156296  0.67722009    -0.51700
C1019       C  0.87526753  0.34348676  0.55874815     0.70300
O1020       O  0.84966985  0.36131161  0.56545121    -0.46500
C1021       C  0.91534610  0.43525734  0.58189049     0.75000
O1022       O  0.82722475  0.42528926  0.61705921    -0.58400
O1023       O  0.91913589  0.42402114  0.62274618    -0.48500
O1024       O  0.85727669  0.42969312  0.67634319    -0.54800
C1025       C  0.87144421  0.34402011  0.68379314     0.85200
O1026       O  0.89949492  0.35281341  0.58190913    -0.56700
O1027       O  0.88959332  0.42584294  0.56263058    -0.60000
In1028     In  0.87489449  0.11007465  0.87007942     1.36900
C1029       C  0.91567050  0.06606037  0.91083003     0.77700
O1030       O  0.89279613  0.15125463  0.91639786    -0.60800
O1031       O  0.84234186  0.14175736  0.91700566    -0.51700
C1032       C  0.88391261  0.16049387  0.81020958     0.70300
O1033       O  0.90719958  0.14110332  0.82354740    -0.46500
C1034       C  0.83399510  0.06909387  0.82614986     0.75000
O1035       O  0.91999044  0.07728650  0.87032370    -0.58400
O1036       O  0.83145146  0.07604586  0.86860332    -0.48500
O1037       O  0.88999665  0.07676659  0.92940523    -0.54800
C1038       C  0.86532665  0.16078566  0.93037480     0.85200
O1039       O  0.85651200  0.15157927  0.82437084    -0.56700
O1040       O  0.85846159  0.08182494  0.80735862    -0.60000
C1041       C  0.87004529  0.31315249  0.71394755    -0.05100
C1042       C  0.83994387  0.30198671  0.72975328    -0.05100
C1043       C  0.83697800  0.26974289  0.75138766    -0.23200
C1044       C  0.86403520  0.24789851  0.75704984     0.19000
C1045       C  0.89468155  0.25919955  0.74265051     0.16200
C1046       C  0.89756892  0.29205900  0.72153780    -0.18300
C1047       C  0.92165321  0.23706143  0.74876148    -0.20100
C1048       C  0.91826918  0.20420397  0.76931312    -0.12700
C1049       C  0.88782568  0.19293886  0.78355830     0.04000
C1050       C  0.86080680  0.21488989  0.77685689    -0.24800
H1051       H  0.81845877  0.31785108  0.72414808     0.09100
H1052       H  0.81338171  0.26152682  0.76264264     0.12700
H1053       H  0.92079172  0.30036431  0.70889955     0.12600
H1054       H  0.94535296  0.24526133  0.73799816     0.12400
H1055       H  0.93947174  0.18789557  0.77477520     0.12900
H1056       H  0.83720471  0.20668156  0.78816700     0.14900
C1057       C  0.87708473  0.31265882  0.52858500    -0.05100
C1058       C  0.90727492  0.30143122  0.51215283    -0.05100
C1059       C  0.91060932  0.26957565  0.48950817    -0.23200
C1060       C  0.88388619  0.24806769  0.48364461     0.19000
C1061       C  0.85317912  0.25936281  0.99895431     0.16200
C1062       C  0.84988923  0.29189136  0.52098703    -0.18300
C1063       C  0.82657800  0.23749916  0.99286630    -0.20100
C1064       C  0.83042210  0.20480717  0.97179824    -0.12700
C1065       C  0.86095546  0.19342242  0.95684724     0.04000
C1066       C  0.88755093  0.21528282  0.96306447    -0.24800
H1067       H  0.92852962  0.31701107  0.51780352     0.09100
H1068       H  0.93425647  0.26135485  0.47765546     0.12700
H1069       H  0.82662103  0.30020710  0.03418204     0.12600
H1070       H  0.80282881  0.24571122  0.00426909     0.12400
H1071       H  0.80950262  0.18864400  0.96668456     0.12900
H1072       H  0.91118774  0.20706806  0.45109355     0.14900
C1073       C  0.61607966  0.31841160  0.73120446    -0.05100
C1074       C  0.64134042  0.31453951  0.76319507    -0.05100
C1075       C  0.64437830  0.28432255  0.78964003    -0.23200
C1076       C  0.62260865  0.25707735  0.78372839     0.19000
C1077       C  0.59637396  0.26105621  0.75280324     0.16200
C1078       C  0.59298316  0.29206562  0.72708313    -0.18300
C1079       C  0.57491500  0.23333998  0.74686154    -0.20100
C1080       C  0.57986830  0.20178584  0.77057109    -0.12700
C1081       C  0.60643691  0.19747522  0.80028042     0.04000
C1082       C  0.62738414  0.22548507  0.80716705    -0.24800
H1083       H  0.65944612  0.33449905  0.76659757     0.09100
H1084       H  0.66450706  0.28170074  0.81337820     0.12700
H1085       H  0.57378557  0.29469022  0.70179629     0.12600
H1086       H  0.55464307  0.23586619  0.72337280     0.12400
H1087       H  0.56327923  0.18059622  0.76514473     0.12900
H1088       H  0.64766322  0.22261917  0.83064885     0.14900
C1089       C  0.63127460  0.18303269  0.98220316    -0.05100
C1090       C  0.60483755  0.18836612  0.01150401    -0.05100
C1091       C  0.60193361  0.21880505  0.03730839    -0.23200
C1092       C  0.62520382  0.24474021  0.53374789     0.19000
C1093       C  0.65258059  0.23937057  0.00569868     0.16200
C1094       C  0.65563448  0.20822103  0.98030077    -0.18300
C1095       C  0.67564584  0.26582489  0.50241906    -0.20100
C1096       C  0.67108665  0.29755003  0.52575987    -0.12700
C1097       C  0.64328533  0.30325159  0.55226970     0.04000
C1098       C  0.62086852  0.27639100  0.55680744    -0.24800
H1099       H  0.58575792  0.16939043  0.01326441     0.09100
H1100       H  0.58088901  0.22258460  0.55881983     0.12700
H1101       H  0.67580216  0.20454172  0.95711776     0.12600
H1102       H  0.69687452  0.26220170  0.48126552     0.12400
H1103       H  0.68887868  0.31780040  0.52237286     0.12900
H1104       H  0.59964571  0.28024976  0.57798824     0.14900
N1105       N  0.49893561  0.53301152  0.44044458    -0.36500
N1106       N  0.54874172  0.99671180  0.99453807    -0.57100
N1107       N  0.99905092  0.96380482  0.05018894    -0.36500
N1108       N  0.94915927  0.99962640  0.99600247    -0.57100
C1109       C  0.52518339  0.55237316  0.43047557     0.27100
C1110       C  0.97268704  0.55309786  0.43023048     0.27100
C1111       C  0.52512263  0.94369024  0.06123786     0.27100
C1112       C  0.97267035  0.94553738  0.06259495     0.27100
C1113       C  0.56812562  0.51466066  0.46572679     0.35700
C1114       C  0.56835962  0.97651879  0.02130305     0.35700
C1115       C  0.92959244  0.51839129  0.46746149     0.35700
C1116       C  0.92965226  0.98177057  0.02474095     0.35700
C1117       C  0.51532624  0.58493452  0.41435819    -0.21800
C1118       C  0.98242869  0.58536433  0.41414082    -0.21800
C1119       C  0.51511908  0.91242795  0.08015018    -0.21800
C1120       C  0.98223332  0.91355578  0.08096204    -0.21800
C1121       C  0.59999963  0.50500391  0.47345139    -0.22900
C1122       C  0.60023473  0.98182251  0.00927349    -0.22900
C1123       C  0.89763277  0.51179807  0.47764678    -0.22900
C1124       C  0.89767566  0.98983224  0.01468360    -0.22900
C1125       C  0.55793766  0.54210086  0.43594127    -0.18200
C1126       C  0.93999105  0.54392624  0.43558308    -0.18200
C1127       C  0.94001738  0.95611036  0.05715863    -0.18200
C1128       C  0.55790092  0.95200747  0.05462044    -0.18200
H1129       H  0.53012340  0.60691675  0.40535657     0.14700
H1130       H  0.96748950  0.60770797  0.40499190     0.14700
H1131       H  0.52989262  0.89033483  0.09080165     0.14700
H1132       H  0.96720300  0.89236650  0.09222364     0.14700
H1133       H  0.62127562  0.51389125  0.45585875     0.13000
H1134       H  0.62182532  0.97026309  0.02393242     0.13000
H1135       H  0.87608590  0.52199177  0.46118212     0.13000
H1136       H  0.87613048  0.98092903  0.03150981     0.13000
H1137       H  0.49887146  0.50687865  0.45032974     0.26200
H1138       H  0.99931412  0.98949081  0.03848375     0.26200
In1139     In  0.62390481  0.89118617  0.12857734     1.36900
C1140       C  0.58210137  0.93115650  0.08166984     0.77700
O1141       O  0.63846570  0.92680828  0.18564889    -0.60800
O1142       O  0.66809281  0.92394653  0.12630116    -0.51700
C1143       C  0.61747859  0.84685712  0.19726928     0.70300
O1144       O  0.59301694  0.85984661  0.17684717    -0.46500
C1145       C  0.63684330  0.83653093  0.07619463     0.75000
O1146       O  0.57802697  0.92309271  0.12351758    -0.58400
O1147       O  0.65795287  0.85935384  0.08410826    -0.48500
O1148       O  0.60767560  0.91896350  0.06449170    -0.54800
C1149       C  0.66411441  0.93621868  0.16637215     0.85200
O1150       O  0.64424405  0.85851956  0.18438764    -0.56700
O1151       O  0.60927538  0.84355324  0.09203369    -0.60000
In1152     In  0.62424428  0.60989317  0.37943759     1.36900
C1153       C  0.66644224  0.56912831  0.33487534     0.77700
O1154       O  0.60831868  0.57321280  0.43444006    -0.60800
O1155       O  0.57920166  0.57808140  0.37442746    -0.51700
C1156       C  0.63016664  0.65426203  0.44861730     0.70300
O1157       O  0.65475489  0.64109377  0.42911954    -0.46500
C1158       C  0.61262136  0.66448174  0.32538097     0.75000
O1159       O  0.66961723  0.57677684  0.37702529    -0.58400
O1160       O  0.59131180  0.64186870  0.33301717    -0.48500
O1161       O  0.64153587  0.58205811  0.31627271    -0.54800
C1162       C  0.58276590  0.56455897  0.41397086     0.85200
O1163       O  0.60355508  0.64253241  0.43491805    -0.56700
O1164       O  0.63990335  0.65749276  0.34263609    -0.60000
N1165       N  0.74755710  0.96904841  0.19054148    -0.36500
N1166       N  0.79843576  0.50661978  0.23861063    -0.57100
N1167       N  0.74988204  0.53884806  0.29865006    -0.36500
N1168       N  0.69872314  0.00331897  0.24827188    -0.57100
C1169       C  0.77397579  0.95022598  0.17766782     0.27100
C1170       C  0.72157313  0.94879063  0.18251616     0.27100
C1171       C  0.77633332  0.55673927  0.31197688     0.27100
C1172       C  0.72375634  0.55609668  0.31580736     0.27100
C1173       C  0.81689842  0.98925379  0.20753758     0.35700
C1174       C  0.81843492  0.52732681  0.26306888     0.35700
C1175       C  0.67877860  0.98449634  0.22112567     0.35700
C1176       C  0.67973899  0.52330245  0.27583391     0.35700
C1177       C  0.76456395  0.91775183  0.16188438    -0.21800
C1178       C  0.73174450  0.91682726  0.16499635    -0.21800
C1179       C  0.76671303  0.58541842  0.33796285    -0.21800
C1180       C  0.73393806  0.58500528  0.34035648    -0.21800
C1181       C  0.84854598  0.99996055  0.21114786    -0.22900
C1182       C  0.84968521  0.52333618  0.24663980    -0.22900
C1183       C  0.64699185  0.99295766  0.23121169    -0.22900
C1184       C  0.64759010  0.51674425  0.26626399    -0.22900
C1185       C  0.80647757  0.96110758  0.17974445    -0.18200
C1186       C  0.68877549  0.95807583  0.18982045    -0.18200
C1187       C  0.69076801  0.54799420  0.30871008    -0.18200
C1188       C  0.80897119  0.54949188  0.30010234    -0.18200
H1189       H  0.77966775  0.89622488  0.15057668     0.14700
H1190       H  0.71725347  0.89444773  0.15656008     0.14700
H1191       H  0.78135458  0.60612389  0.35166842     0.14700
H1192       H  0.71947038  0.60521349  0.35641216     0.14700
H1193       H  0.86913496  0.99127222  0.19131103     0.13000
H1194       H  0.87158826  0.53521781  0.25864186     0.13000
H1195       H  0.62524296  0.98310264  0.21567501     0.13000
H1196       H  0.62635759  0.52761910  0.28251293     0.13000
H1197       H  0.74702460  0.99516063  0.20037913     0.26200
H1198       H  0.74985928  0.51519617  0.28110001     0.26200
In1199     In  0.87319173  0.89345171  0.12082228     1.36900
C1200       C  0.83123848  0.93858923  0.15662399     0.77700
O1201       O  0.84719909  0.85352704  0.16027293    -0.60800
O1202       O  0.89676357  0.86156190  0.17722570    -0.51700
C1203       C  0.87526665  0.84348521  0.05875071     0.70300
O1204       O  0.84966827  0.86130880  0.06545413    -0.46500
C1205       C  0.91534312  0.93525542  0.08189014     0.75000
O1206       O  0.82722202  0.92528682  0.11705822    -0.58400
O1207       O  0.91913392  0.92401889  0.12274562    -0.48500
O1208       O  0.85727475  0.92969696  0.17634012    -0.54800
C1209       C  0.87144043  0.84402062  0.18380080     0.85200
O1210       O  0.89949388  0.85281309  0.08191097    -0.56700
O1211       O  0.88958971  0.92584126  0.06263181    -0.60000
In1212     In  0.87489383  0.61007262  0.37008218     1.36900
C1213       C  0.91567120  0.56605971  0.41083173     0.77700
O1214       O  0.89279869  0.65125826  0.41638941    -0.60800
O1215       O  0.84234621  0.64175059  0.41702004    -0.51700
C1216       C  0.88390615  0.66049324  0.31021335     0.70300
O1217       O  0.90719419  0.64110225  0.32354644    -0.46500
C1218       C  0.83399423  0.56909314  0.32614943     0.75000
O1219       O  0.91998998  0.57728456  0.37032461    -0.58400
O1220       O  0.83144914  0.57604609  0.36860254    -0.48500
O1221       O  0.88999802  0.57676654  0.42940815    -0.54800
C1222       C  0.86533056  0.66078415  0.43037773     0.85200
O1223       O  0.85650663  0.65157906  0.32437967    -0.56700
O1224       O  0.85846279  0.58182178  0.30736076    -0.60000
C1225       C  0.87004046  0.81315438  0.21395785    -0.05100
C1226       C  0.83993919  0.80199114  0.22976777    -0.05100
C1227       C  0.83697241  0.76974702  0.25140176    -0.23200
C1228       C  0.86402841  0.74789985  0.25705863     0.19000
C1229       C  0.89467457  0.75919890  0.24265550     0.16200
C1230       C  0.89756296  0.79205870  0.22154455    -0.18300
C1231       C  0.92164521  0.73705859  0.24876075    -0.20100
C1232       C  0.91826087  0.70420139  0.26931228    -0.12700
C1233       C  0.88781781  0.69293802  0.28356149     0.04000
C1234       C  0.86079938  0.71489060  0.27686413    -0.24800
H1235       H  0.81845495  0.81785750  0.22416554     0.09100
H1236       H  0.81337630  0.76153274  0.26265987     0.12700
H1237       H  0.92078558  0.80036236  0.20890369     0.12600
H1238       H  0.94534465  0.74525697  0.23799394     0.12400
H1239       H  0.93946304  0.68789182  0.27477141     0.12900
H1240       H  0.83719764  0.70668324  0.28817695     0.14900
C1241       C  0.87708467  0.81265683  0.02858890    -0.05100
C1242       C  0.90727575  0.80142628  0.01216326    -0.05100
C1243       C  0.91060995  0.76957014  0.98952007    -0.23200
C1244       C  0.88388550  0.74806495  0.98365093     0.19000
C1245       C  0.85318078  0.75936199  0.49895549     0.16200
C1246       C  0.84988829  0.79189196  0.02098597    -0.18300
C1247       C  0.82658137  0.73749459  0.49287528    -0.20100
C1248       C  0.83042665  0.70480194  0.47180911    -0.12700
C1249       C  0.86095922  0.69342108  0.45684987     0.04000
C1250       C  0.88755275  0.71528558  0.46305809    -0.24800
H1251       H  0.92853118  0.81700416  0.01781801     0.09100
H1252       H  0.93425768  0.76134701  0.97767230     0.12700
H1253       H  0.82662278  0.80020446  0.53418749     0.12600
H1254       H  0.80283272  0.74570392  0.50428356     0.12400
H1255       H  0.80950852  0.68863551  0.46670249     0.12900
H1256       H  0.91118701  0.70706172  0.95110763     0.14900
C1257       C  0.61607927  0.81841266  0.23120477    -0.05100
C1258       C  0.64134016  0.81454147  0.26319556    -0.05100
C1259       C  0.64437892  0.78432444  0.28964044    -0.23200
C1260       C  0.62261011  0.75707847  0.28372834     0.19000
C1261       C  0.59637499  0.76105697  0.25280382     0.16200
C1262       C  0.59298354  0.79206605  0.22708363    -0.18300
C1263       C  0.57491584  0.73334094  0.24686298    -0.20100
C1264       C  0.57986912  0.70178728  0.27057292    -0.12700
C1265       C  0.60643833  0.69747667  0.30028078     0.04000
C1266       C  0.62738635  0.72548600  0.30716618    -0.24800
H1267       H  0.65944516  0.83450173  0.26659824     0.09100
H1268       H  0.66450757  0.78170322  0.31337892     0.12700
H1269       H  0.57378579  0.79469004  0.20179696     0.12600
H1270       H  0.55464345  0.73586709  0.22337506     0.12400
H1271       H  0.56327958  0.68059789  0.26514787     0.12900
H1272       H  0.64766610  0.72261977  0.33064679     0.14900
C1273       C  0.63127248  0.68303407  0.48219867    -0.05100
C1274       C  0.60483244  0.68837113  0.51149290    -0.05100
C1275       C  0.60192836  0.71881084  0.53729508    -0.23200
C1276       C  0.62520629  0.74473700  0.03375718     0.19000
C1277       C  0.65258053  0.73937055  0.50569540     0.16200
C1278       C  0.65563476  0.70821986  0.48030005    -0.18300
C1279       C  0.67564369  0.76582672  0.00241907    -0.20100
C1280       C  0.67108411  0.79755134  0.02576064    -0.12700
C1281       C  0.64328475  0.80325031  0.05227523     0.04000
C1282       C  0.62087078  0.77638730  0.05681817    -0.24800
H1283       H  0.58575068  0.66939774  0.51324977     0.09100
H1284       H  0.58089621  0.72257611  0.05883802     0.12700
H1285       H  0.67580473  0.70453775  0.45712179     0.12600
H1286       H  0.69687068  0.76220570  0.98126153     0.12400
H1287       H  0.68887380  0.81780371  0.02236951     0.12900
H1288       H  0.59964965  0.78024421  0.07800296     0.14900
N1289       N  0.49893449  0.53300895  0.94043999    -0.36500
N1290       N  0.54874350  0.99671598  0.49454457    -0.57100
N1291       N  0.99905379  0.96380566  0.55018841    -0.36500
N1292       N  0.94916153  0.99962586  0.49600169    -0.57100
C1293       C  0.52518283  0.55236923  0.93046850     0.27100
C1294       C  0.97268626  0.55309580  0.93022619     0.27100
C1295       C  0.52512557  0.94369138  0.56123815     0.27100
C1296       C  0.97267319  0.94553813  0.56259422     0.27100
C1297       C  0.56812451  0.51465680  0.96572136     0.35700
C1298       C  0.56836201  0.97652264  0.52130838     0.35700
C1299       C  0.92959083  0.51839142  0.96746085     0.35700
C1300       C  0.92965518  0.98177290  0.52474389     0.35700
C1301       C  0.51532634  0.58493010  0.91434874    -0.21800
C1302       C  0.98242879  0.58536106  0.91413321    -0.21800
C1303       C  0.51512181  0.91242882  0.58014886    -0.21800
C1304       C  0.98223593  0.91355652  0.58096075    -0.21800
C1305       C  0.59999845  0.50500023  0.97344728    -0.22900
C1306       C  0.60023675  0.98182663  0.50927784    -0.22900
C1307       C  0.89763098  0.51179581  0.97764194    -0.22900
C1308       C  0.89767848  0.98983682  0.51469093    -0.22900
C1309       C  0.55793714  0.54209706  0.93593575    -0.18200
C1310       C  0.93998992  0.54392615  0.93558188    -0.18200
C1311       C  0.94002047  0.95611219  0.55716003    -0.18200
C1312       C  0.55790397  0.95200959  0.55462366    -0.18200
H1313       H  0.53012382  0.60691161  0.90534526     0.14700
H1314       H  0.96749049  0.60770538  0.90498429     0.14700
H1315       H  0.52989535  0.89033579  0.59080053     0.14700
H1316       H  0.96720523  0.89236765  0.59222264     0.14700
H1317       H  0.62127479  0.51388778  0.95585554     0.13000
H1318       H  0.62182772  0.97026712  0.52393537     0.13000
H1319       H  0.87608471  0.52198851  0.96117452     0.13000
H1320       H  0.87613401  0.98093635  0.53152175     0.13000
H1321       H  0.49886934  0.50687653  0.95032762     0.26200
H1322       H  0.99931656  0.98949130  0.53848486     0.26200
In1323     In  0.62390879  0.89118554  0.62857842     1.36900
C1324       C  0.58210503  0.93115809  0.58167263     0.77700
O1325       O  0.63846906  0.92680618  0.68565019    -0.60800
O1326       O  0.66809875  0.92394206  0.62630494    -0.51700
C1327       C  0.61748065  0.84685624  0.69726942     0.70300
O1328       O  0.59301978  0.85984679  0.67684681    -0.46500
C1329       C  0.63684533  0.83653154  0.57619224     0.75000
O1330       O  0.57802973  0.92309079  0.62351894    -0.58400
O1331       O  0.65795591  0.85935284  0.58410800    -0.48500
O1332       O  0.60768109  0.91896853  0.56449560    -0.54800
C1333       C  0.66411875  0.93621511  0.66637509     0.85200
O1334       O  0.64424669  0.85851798  0.68438904    -0.56700
O1335       O  0.60927786  0.84355455  0.59203234    -0.60000
In1336     In  0.62424555  0.60989172  0.87943888     1.36900
C1337       C  0.66644380  0.56912819  0.83487372     0.77700
O1338       O  0.60831767  0.57321036  0.93443984    -0.60800
O1339       O  0.57920386  0.57807806  0.87442428    -0.51700
C1340       C  0.63016815  0.65426110  0.94862027     0.70300
O1341       O  0.65475616  0.64109176  0.92912309    -0.46500
C1342       C  0.61262087  0.66448017  0.82538104     0.75000
O1343       O  0.66961979  0.57677678  0.87702348    -0.58400
O1344       O  0.59131225  0.64186612  0.83301717    -0.48500
O1345       O  0.64153679  0.58205755  0.81627240    -0.54800
C1346       C  0.58276616  0.56455576  0.91396795     0.85200
O1347       O  0.60355646  0.64253259  0.93491965    -0.56700
O1348       O  0.63990277  0.65749233  0.84263728    -0.60000
N1349       N  0.74756034  0.96904287  0.69055055    -0.36500
N1350       N  0.79843846  0.50661815  0.73861341    -0.57100
N1351       N  0.74988345  0.53884677  0.79865023    -0.36500
N1352       N  0.69872446  0.00331936  0.74827002    -0.57100
C1353       C  0.77397913  0.95022147  0.67767603     0.27100
C1354       C  0.72157656  0.94878564  0.68252398     0.27100
C1355       C  0.77633480  0.55673939  0.81197763     0.27100
C1356       C  0.72375726  0.55609841  0.81580387     0.27100
C1357       C  0.81690175  0.98925074  0.70754305     0.35700
C1358       C  0.81843739  0.52732402  0.76307367     0.35700
C1359       C  0.67878041  0.98449405  0.72112672     0.35700
C1360       C  0.67974024  0.52330027  0.77583452     0.35700
C1361       C  0.76456778  0.91774711  0.66189171    -0.21800
C1362       C  0.73174824  0.91682200  0.66500425    -0.21800
C1363       C  0.76671405  0.58541982  0.83795923    -0.21800
C1364       C  0.73393876  0.58500814  0.84034918    -0.21800
C1365       C  0.84854994  0.99995523  0.71115692    -0.22900
C1366       C  0.84968852  0.52333112  0.74664857    -0.22900
C1367       C  0.64699324  0.99295241  0.73121604    -0.22900
C1368       C  0.64759143  0.51673843  0.76626891    -0.22900
C1369       C  0.80648057  0.96110458  0.67975005    -0.18200
C1370       C  0.68877868  0.95807217  0.68982415    -0.18200
C1371       C  0.69076927  0.54799419  0.80870751    -0.18200
C1372       C  0.80897262  0.54949052  0.80010475    -0.18200
H1373       H  0.77967209  0.89622120  0.65058173     0.14700
H1374       H  0.71725714  0.89444272  0.65656676     0.14700
H1375       H  0.78135576  0.60612518  0.85166484     0.14700
H1376       H  0.71947071  0.60521759  0.85640160     0.14700
H1377       H  0.86913954  0.99126483  0.69132289     0.13000
H1378       H  0.87159131  0.53521163  0.75865396     0.13000
H1379       H  0.62524420  0.98309524  0.71568227     0.13000
H1380       H  0.62635922  0.52761156  0.78252081     0.13000
H1381       H  0.74702740  0.99515648  0.70038795     0.26200
H1382       H  0.74986070  0.51519912  0.78110619     0.26200
In1383     In  0.87319379  0.89345354  0.62081997     1.36900
C1384       C  0.83124094  0.93858786  0.65662730     0.77700
O1385       O  0.84720216  0.85352684  0.66026670    -0.60800
O1386       O  0.89676652  0.86156310  0.67722035    -0.51700
C1387       C  0.87526753  0.84348665  0.55874865     0.70300
O1388       O  0.84966986  0.86131160  0.56545140    -0.46500
C1389       C  0.91534597  0.93525729  0.58189049     0.75000
O1390       O  0.82722462  0.92528934  0.61705923    -0.58400
O1391       O  0.91913572  0.92402122  0.62274625    -0.48500
O1392       O  0.85727655  0.92969321  0.67634320    -0.54800
C1393       C  0.87144406  0.84402028  0.68379347     0.85200
O1394       O  0.89949489  0.85281335  0.58190969    -0.56700
O1395       O  0.88959322  0.92584282  0.56263056    -0.60000
In1396     In  0.87489451  0.61007462  0.87007940     1.36900
C1397       C  0.91567051  0.56606031  0.91083005     0.77700
O1398       O  0.89279611  0.65125451  0.91639789    -0.60800
O1399       O  0.84234181  0.64175739  0.91700558    -0.51700
C1400       C  0.88391253  0.66049392  0.81020963     0.70300
O1401       O  0.90719954  0.64110340  0.82354742    -0.46500
C1402       C  0.83399513  0.56909372  0.82614996     0.75000
O1403       O  0.91999047  0.57728639  0.87032369    -0.58400
O1404       O  0.83145154  0.57604573  0.86860342    -0.48500
O1405       O  0.88999672  0.57676666  0.92940526    -0.54800
C1406       C  0.86532664  0.66078563  0.93037474     0.85200
O1407       O  0.85651192  0.65157918  0.82437078    -0.56700
O1408       O  0.85846162  0.58182478  0.80735869    -0.60000
C1409       C  0.87004513  0.81315270  0.71394795    -0.05100
C1410       C  0.83994371  0.80198686  0.72975356    -0.05100
C1411       C  0.83697783  0.76974297  0.75138775    -0.23200
C1412       C  0.86403505  0.74789861  0.75704993     0.19000
C1413       C  0.89468143  0.75919976  0.74265083     0.16200
C1414       C  0.89756879  0.79205927  0.72153824    -0.18300
C1415       C  0.92165310  0.73706169  0.74876189    -0.20100
C1416       C  0.91826906  0.70420419  0.76931343    -0.12700
C1417       C  0.88782557  0.69293899  0.78355848     0.04000
C1418       C  0.86080666  0.71488995  0.77685691    -0.24800
H1419       H  0.81845862  0.81785124  0.72414837     0.09100
H1420       H  0.81338155  0.76152684  0.76264264     0.12700
H1421       H  0.92079156  0.80036470  0.70890002     0.12600
H1422       H  0.94535286  0.74526166  0.73799873     0.12400
H1423       H  0.93947163  0.68789581  0.77477555     0.12900
H1424       H  0.83720457  0.70668151  0.78816685     0.14900
C1425       C  0.87708476  0.81265858  0.52858570    -0.05100
C1426       C  0.90727499  0.80143080  0.51215392    -0.05100
C1427       C  0.91060940  0.76957524  0.48950926    -0.23200
C1428       C  0.88388623  0.74806748  0.48364529     0.19000
C1429       C  0.85317932  0.75936280  0.99895414     0.16200
C1430       C  0.84988919  0.79189131  0.52098732    -0.18300
C1431       C  0.82657814  0.73749927  0.99286595    -0.20100
C1432       C  0.83042217  0.70480727  0.97179791    -0.12700
C1433       C  0.86095554  0.69342240  0.95684715     0.04000
C1434       C  0.88755112  0.71528263  0.96306465    -0.24800
H1435       H  0.92852974  0.81701052  0.51780481     0.09100
H1436       H  0.93425659  0.76135434  0.47765678     0.12700
H1437       H  0.82662121  0.80020727  0.03418155     0.12600
H1438       H  0.80282895  0.74571146  0.00426858     0.12400
H1439       H  0.80950268  0.68864416  0.96668406     0.12900
H1440       H  0.91118785  0.70706793  0.45109424     0.14900
C1441       C  0.61607988  0.81841163  0.73120446    -0.05100
C1442       C  0.64134079  0.81453940  0.76319481    -0.05100
C1443       C  0.64437868  0.78432241  0.78963969    -0.23200
C1444       C  0.62260892  0.75707731  0.78372820     0.19000
C1445       C  0.59637408  0.76105631  0.75280331     0.16200
C1446       C  0.59298325  0.79206577  0.72708332    -0.18300
C1447       C  0.57491505  0.73334016  0.74686173    -0.20100
C1448       C  0.57986836  0.70178598  0.77057115    -0.12700
C1449       C  0.60643704  0.69747527  0.80028036     0.04000
C1450       C  0.62738441  0.72548502  0.80716679    -0.24800
H1451       H  0.65944658  0.83449886  0.76659713     0.09100
H1452       H  0.66450753  0.78170049  0.81337768     0.12700
H1453       H  0.57378555  0.79469047  0.70179667     0.12600
H1454       H  0.55464301  0.73586646  0.72337318     0.12400
H1455       H  0.56327922  0.68059643  0.76514477     0.12900
H1456       H  0.64766360  0.72261905  0.83064841     0.14900
C1457       C  0.63127463  0.68303256  0.98220314    -0.05100
C1458       C  0.60483752  0.68836605  0.01150390    -0.05100
C1459       C  0.60193360  0.71880496  0.03730831    -0.23200
C1460       C  0.62520368  0.74474030  0.53374797     0.19000
C1461       C  0.65258068  0.73937037  0.00569877     0.16200
C1462       C  0.65563456  0.70822085  0.98030088    -0.18300
C1463       C  0.67564567  0.76582499  0.50241909    -0.20100
C1464       C  0.67108650  0.79755011  0.52575997    -0.12700
C1465       C  0.64328520  0.80325166  0.55226986     0.04000
C1466       C  0.62086842  0.77639105  0.55680764    -0.24800
H1467       H  0.58575784  0.66939041  0.01326417     0.09100
H1468       H  0.58088889  0.72258464  0.55881992     0.12700
H1469       H  0.67580230  0.70454151  0.95711797     0.12600
H1470       H  0.69687433  0.76220180  0.48126552     0.12400
H1471       H  0.68887850  0.81780049  0.52237292     0.12900
H1472       H  0.59964562  0.78024981  0.57798847     0.14900
loop_ 
_geom_bond_atom_site_label_1 
_geom_bond_atom_site_label_2 
_geom_bond_distance 
_geom_bond_site_symmetry_2 
_ccdc_geom_bond_type 
N1           H33   1.042       .  S
N1            C5   1.358   1_655  A
N1          C742   1.356       .  A
N2           C10   1.357   1_556  A
N2          C561   1.356       .  A
N3           H34   1.041       .  S
N3            C8   1.357       .  A
N3          C743   1.356       .  A
N4           C12   1.356   1_556  A
N4          C563   1.356       .  A
C5           C13   1.388       .  A
C5           C21   1.417       .  A
C6          N737   1.356       .  A
C6           C22   1.415       .  A
C6           C14   1.387       .  A
C7          N739   1.356   1_455  A
C7           C15   1.387       .  A
C7           C24   1.415       .  A
C8           C23   1.416       .  A
C8           C16   1.388       .  A
C9          N554   1.356   1_545  A
C9           C21   1.419       .  A
C9           C17   1.385       .  A
C10          C24   1.421       .  A
C10          C18   1.387       .  A
C11         N556   1.356   1_545  A
C11          C19   1.386       .  A
C11          C22   1.419       .  A
C12          C20   1.387       .  A
C12          C23   1.421       .  A
C13         C750   1.364   1_455  A
C13          H25   1.082       .  S
C14         C749   1.364       .  A
C14          H26   1.082       .  S
C15         C752   1.364   1_455  A
C15          H27   1.082       .  S
C16         C751   1.364       .  A
C16          H28   1.082       .  S
C17         C570   1.367   1_545  A
C17          H29   1.081       .  S
C18         C569   1.367   1_554  A
C18          H30   1.079       .  S
C19         C572   1.365   1_545  A
C19          H31   1.080       .  S
C20         C571   1.365   1_554  A
C20          H32   1.080       .  S
C21          C58   1.496       .  S
C22         C109   1.491       .  S
C23         C101   1.493       .  S
C24          C36   1.494       .  S
In35         O37   2.235       .  S
In35         O38   2.237       .  S
In35         O46   2.204       .  S
In35         O40   2.259       .  S
In35         O42   2.252       .  S
In35         O43   2.264       .  S
In35         O44   2.239       .  S
In35         O47   2.204       .  S
C36          O42   1.266       .  A
C36          O44   1.259       .  A
O37          C45   1.261       .  A
O38          C45   1.266       .  A
C39         C153   1.470       .  S
C39          O46   1.261       .  A
C39          O40   1.268       .  A
C41         C177   1.475       .  S
C41          O43   1.267       .  A
C41          O47   1.260       .  A
C45          C82   1.494       .  S
In48         O50   2.234       .  S
In48         O51   2.249       .  S
In48         O59   2.211       .  S
In48         O53   2.268       .  S
In48         O55   2.257       .  S
In48         O56   2.262       .  S
In48         O57   2.239       .  S
In48         O60   2.219       .  S
C49          C83   1.496       .  S
C49          O55   1.266       .  A
C49          O57   1.259       .  A
O50          C58   1.261       .  A
O51          C58   1.266       .  A
C52         C169   1.474       .  S
C52          O59   1.260       .  A
C52          O53   1.268       .  A
C54         C161   1.477       .  S
C54          O56   1.266       .  A
C54          O60   1.261       .  A
N61          H93   1.041       .  S
N61          C66   1.356       .  A
N61          C65   1.358       .  A
N62          C70   1.355       .  A
N62         C437   1.356   1_545  A
N63          H94   1.041       .  S
N63          C68   1.359       .  A
N63          C67   1.357       .  A
N64          C71   1.356       .  A
N64         C440   1.356       .  A
C65          C73   1.387       .  A
C65          C81   1.418       .  A
C66          C82   1.418       .  A
C66          C74   1.388       .  A
C67          C75   1.389       .  A
C67          C84   1.422       .  A
C68          C83   1.421       .  A
C68          C76   1.388       .  A
C69         N430   1.356       .  A
C69          C81   1.419       .  A
C69          C77   1.384       .  A
C70          C84   1.425       .  A
C70          C78   1.390       .  A
C71          C79   1.386       .  A
C71          C82   1.421       .  A
C72         N432   1.356       .  A
C72          C80   1.387       .  A
C72          C83   1.424       .  A
C73          C74   1.366       .  A
C73          H85   1.082       .  S
C74          H86   1.082       .  S
C75          C76   1.362       .  A
C75          H87   1.081       .  S
C76          H88   1.081       .  S
C77         C446   1.368       .  A
C77          H89   1.081       .  S
C78         C445   1.368   1_545  A
C78          H90   1.078       .  S
C79         C448   1.368       .  A
C79          H91   1.080       .  S
C80         C447   1.368   1_545  A
C80          H92   1.080       .  S
C81          C96   1.495       .  S
C84         C114   1.493       .  S
In95         O97   2.206       .  S
In95         O98   2.254       .  S
In95        O106   2.205       .  S
In95        O100   2.254       .  S
In95        O102   2.252       .  S
In95        O103   2.251       .  S
In95        O104   2.226       .  S
In95        O107   2.210       .  S
C96         O102   1.269       .  A
C96         O104   1.262       .  A
O97         C105   1.262       .  A
O98         C105   1.270       .  A
C99         C137   1.473       .  S
C99         O106   1.263       .  A
C99         O100   1.271       .  A
C101        O103   1.270       .  A
C101        O107   1.261       .  A
C105        C121   1.473       .  S
In108       O110   2.209       .  S
In108       O111   2.265       .  S
In108       O119   2.197       .  S
In108       O113   2.256       .  S
In108       O115   2.239       .  S
In108       O116   2.239       .  S
In108       O117   2.225       .  S
In108       O120   2.229       .  S
C109        O115   1.266       .  A
C109        O117   1.260       .  A
O110        C118   1.261       .  A
O111        C118   1.268       .  A
C112        C129   1.475       .  S
C112        O119   1.262       .  A
C112        O113   1.269       .  A
C114        O116   1.266       .  A
C114        O120   1.258       .  A
C118        C145   1.479       .  S
C121        C122   1.404       .  A
C121        C126   1.406       .  A
C122        C123   1.393       .  A
C122        H131   1.083       .  S
C123        C124   1.400       .  A
C123        H132   1.084       .  S
C124        C130   1.397       .  A
C124        C125   1.413       .  A
C125        C127   1.405       .  A
C125        C126   1.407       .  A
C126        H133   1.084       .  S
C127        C128   1.402       .  A
C127        H134   1.083       .  S
C128        C129   1.404       .  A
C128        H135   1.083       .  S
C129        C130   1.405       .  A
C130        H136   1.085       .  S
C137        C138   1.404       .  A
C137        C142   1.406       .  A
C138        C139   1.393   1_554  A
C138        H147   1.084       .  S
C139        C140   1.400       .  A
C139        H148   1.084       .  S
C140        C330   1.399       .  A
C140        C325   1.413       .  A
C141        C143   1.405       .  A
C141        C324   1.413       .  A
C141        C326   1.408       .  A
C142        C325   1.408   1_554  A
C142        H333   1.084       .  S
C143        C144   1.403       .  A
C143        H150   1.083       .  S
C144        C145   1.405       .  A
C144        H151   1.083       .  S
C145        C146   1.405       .  A
C146        C324   1.399       .  A
C146        H336   1.084       .  S
H149        C326   1.084       .  S
H152        C330   1.084       .  S
C153        C154   1.403       .  A
C153        C158   1.406       .  A
C154        C155   1.393       .  A
C154        H163   1.084       .  S
C155        C156   1.400       .  A
C155        H164   1.084       .  S
C156        C162   1.399       .  A
C156        C157   1.414       .  A
C157        C159   1.406       .  A
C157        C158   1.408       .  A
C158        H165   1.084       .  S
C159        C160   1.403       .  A
C159        H166   1.083       .  S
C160        C161   1.404       .  A
C160        H167   1.083       .  S
C161        C162   1.404       .  A
C162        H168   1.085       .  S
C169        C170   1.404       .  A
C169        C174   1.408       .  A
C170        C171   1.392       .  A
C170        H179   1.083       .  S
C171        C356   1.399       .  A
C171        H364   1.084       .  S
C172        C178   1.396       .  A
C172        C355   1.399       .  A
C172        C357   1.413       .  A
C173        C174   1.409       .  A
C173        C356   1.413       .  A
C173        C359   1.407       .  A
C174        H181   1.084       .  S
C175        C176   1.404       .  A
C175        C357   1.407       .  A
C175        H182   1.083   1_554  S
C176        C177   1.404       .  A
C176        H183   1.083       .  S
C177        C178   1.403       .  A
C178        H184   1.085       .  S
H180        C355   1.084       .  S
N185        H217   1.042       .  S
N185        C926   1.356       .  A
N185        C189   1.358   1_655  A
N186        C377   1.356       .  A
N186        C194   1.357       .  A
N187        H218   1.041       .  S
N187        C192   1.357       .  A
N187        C927   1.356       .  A
N188        C379   1.356       .  A
N188        C196   1.356       .  A
C189        C197   1.388       .  A
C189        C205   1.417       .  A
C190        N921   1.356       .  A
C190        C206   1.415       .  A
C190        C198   1.387       .  A
C191        N923   1.356   1_455  A
C191        C199   1.387       .  A
C191        C208   1.415       .  A
C192        C207   1.416       .  A
C192        C200   1.388       .  A
C193        N370   1.356   1_545  A
C193        C205   1.419       .  A
C193        C201   1.385       .  A
C194        C208   1.421       .  A
C194        C202   1.387       .  A
C195        N372   1.356   1_545  A
C195        C203   1.386       .  A
C195        C206   1.419       .  A
C196        C204   1.387       .  A
C196        C207   1.421       .  A
C197        C934   1.364   1_455  A
C197        H209   1.082       .  S
C198        C933   1.364       .  A
C198        H210   1.082       .  S
C199        C936   1.364   1_455  A
C199        H211   1.082       .  S
C200        C935   1.364       .  A
C200        H212   1.082       .  S
C201        C386   1.367   1_546  A
C201        H213   1.081       .  S
C202        C385   1.367       .  A
C202        H214   1.079       .  S
C203        C388   1.365   1_546  A
C203        H215   1.080       .  S
C204        C387   1.365       .  A
C204        H216   1.080       .  S
C205        C242   1.496       .  S
C206        C293   1.491       .  S
C207        C285   1.493       .  S
C208        C220   1.494       .  S
In219       O221   2.235       .  S
In219       O222   2.237       .  S
In219       O230   2.204       .  S
In219       O224   2.259       .  S
In219       O226   2.252       .  S
In219       O227   2.264       .  S
In219       O228   2.239       .  S
In219       O231   2.204       .  S
C220        O226   1.266       .  A
C220        O228   1.259       .  A
O221        C229   1.261       .  A
O222        C229   1.266       .  A
C223        C337   1.470       .  S
C223        O230   1.261       .  A
C223        O224   1.268       .  A
C225        C361   1.475       .  S
C225        O227   1.267       .  A
C225        O231   1.260       .  A
C229        C266   1.493       .  S
In232       O234   2.234       .  S
In232       O235   2.249       .  S
In232       O243   2.211       .  S
In232       O237   2.268       .  S
In232       O239   2.257       .  S
In232       O240   2.262       .  S
In232       O241   2.239       .  S
In232       O244   2.219       .  S
C233        C267   1.496       .  S
C233        O239   1.266       .  A
C233        O241   1.259       .  A
O234        C242   1.261       .  A
O235        C242   1.266       .  A
C236        C353   1.474       .  S
C236        O243   1.260       .  A
C236        O237   1.268       .  A
C238        C345   1.477       .  S
C238        O240   1.266       .  A
C238        O244   1.261       .  A
N245        H277   1.041       .  S
N245        C250   1.356       .  A
N245        C249   1.358       .  A
N246        C621   1.356   1_545  A
N246        C254   1.355       .  A
N247        H278   1.040       .  S
N247        C252   1.359       .  A
N247        C251   1.357       .  A
N248        C255   1.356       .  A
N248        C624   1.356       .  A
C249        C257   1.388       .  A
C249        C265   1.418       .  A
C250        C266   1.418       .  A
C250        C258   1.388       .  A
C251        C259   1.389       .  A
C251        C268   1.422       .  A
C252        C267   1.421       .  A
C252        C260   1.388       .  A
C253        N614   1.356       .  A
C253        C265   1.419       .  A
C253        C261   1.384       .  A
C254        C268   1.425       .  A
C254        C262   1.390       .  A
C255        C263   1.386       .  A
C255        C266   1.421       .  A
C256        N616   1.356       .  A
C256        C264   1.387       .  A
C256        C267   1.424       .  A
C257        C258   1.366       .  A
C257        H269   1.082       .  S
C258        H270   1.082       .  S
C259        C260   1.362       .  A
C259        H271   1.081       .  S
C260        H272   1.081       .  S
C261        C630   1.368       .  A
C261        H273   1.081       .  S
C262        C629   1.368   1_545  A
C262        H274   1.078       .  S
C263        C632   1.368       .  A
C263        H275   1.080       .  S
C264        C631   1.368   1_545  A
C264        H276   1.080       .  S
C265        C280   1.495       .  S
C268        C298   1.493       .  S
In279       O281   2.206       .  S
In279       O282   2.254       .  S
In279       O290   2.205       .  S
In279       O284   2.254       .  S
In279       O286   2.252       .  S
In279       O287   2.251       .  S
In279       O288   2.226       .  S
In279       O291   2.210       .  S
C280        O286   1.269       .  A
C280        O288   1.262       .  A
O281        C289   1.262       .  A
O282        C289   1.270       .  A
C283        C321   1.473       .  S
C283        O290   1.263       .  A
C283        O284   1.271       .  A
C285        O287   1.270       .  A
C285        O291   1.261       .  A
C289        C305   1.473       .  S
In292       O294   2.209       .  S
In292       O295   2.265       .  S
In292       O303   2.197       .  S
In292       O297   2.256       .  S
In292       O299   2.239       .  S
In292       O300   2.239       .  S
In292       O301   2.225       .  S
In292       O304   2.229       .  S
C293        O299   1.266       .  A
C293        O301   1.260       .  A
O294        C302   1.261       .  A
O295        C302   1.268       .  A
C296        C313   1.475       .  S
C296        O303   1.262       .  A
C296        O297   1.269       .  A
C298        O300   1.266       .  A
C298        O304   1.258       .  A
C302        C329   1.479       .  S
C305        C306   1.404       .  A
C305        C310   1.406       .  A
C306        C307   1.393       .  A
C306        H315   1.083       .  S
C307        C308   1.400       .  A
C307        H316   1.084       .  S
C308        C314   1.397       .  A
C308        C309   1.413       .  A
C309        C311   1.405       .  A
C309        C310   1.407       .  A
C310        H317   1.084       .  S
C311        C312   1.402       .  A
C311        H318   1.083       .  S
C312        C313   1.404       .  A
C312        H319   1.083       .  S
C313        C314   1.405       .  A
C314        H320   1.085       .  S
C321        C322   1.404       .  A
C321        C326   1.406       .  A
C322        C323   1.393       .  A
C322        H331   1.084       .  S
C323        C324   1.400       .  A
C323        H332   1.084       .  S
C325        C327   1.405       .  A
C327        C328   1.403       .  A
C327        H334   1.083   1_556  S
C328        C329   1.405       .  A
C328        H335   1.083       .  S
C329        C330   1.405       .  A
C337        C338   1.403       .  A
C337        C342   1.406       .  A
C338        C339   1.393       .  A
C338        H347   1.084       .  S
C339        C340   1.400       .  A
C339        H348   1.084       .  S
C340        C346   1.399       .  A
C340        C341   1.414       .  A
C341        C343   1.406       .  A
C341        C342   1.408       .  A
C342        H349   1.084       .  S
C343        C344   1.403       .  A
C343        H350   1.083       .  S
C344        C345   1.404       .  A
C344        H351   1.083       .  S
C345        C346   1.404       .  A
C346        H352   1.085       .  S
C353        C354   1.404   1_556  A
C353        C358   1.408       .  A
C354        C355   1.392       .  A
C354        H363   1.083       .  S
C356        C362   1.396       .  A
C357        C358   1.409   1_554  A
C358        H365   1.084       .  S
C359        C360   1.404       .  A
C359        H366   1.083       .  S
C360        C361   1.404       .  A
C360        H367   1.083       .  S
C361        C362   1.403       .  A
C362        H368   1.085       .  S
N369        H401   1.042       .  S
N369       C1110   1.356       .  A
N369        C373   1.358   1_655  A
N370        C378   1.357   1_556  A
N371        H402   1.041       .  S
N371        C376   1.357       .  A
N371       C1111   1.356       .  A
N372        C380   1.356   1_556  A
C373        C381   1.388       .  A
C373        C389   1.417       .  A
C374       N1105   1.356       .  A
C374        C390   1.415       .  A
C374        C382   1.387       .  A
C375       N1107   1.356   1_455  A
C375        C383   1.387       .  A
C375        C392   1.415       .  A
C376        C391   1.416       .  A
C376        C384   1.388       .  A
C377        C389   1.419       .  A
C377        C385   1.385       .  A
C378        C392   1.421       .  A
C378        C386   1.387       .  A
C379        C387   1.386       .  A
C379        C390   1.419       .  A
C380        C388   1.387       .  A
C380        C391   1.421       .  A
C381       C1118   1.364   1_455  A
C381        H393   1.082       .  S
C382       C1117   1.364       .  A
C382        H394   1.082       .  S
C383       C1120   1.364   1_455  A
C383        H395   1.082       .  S
C384       C1119   1.364       .  A
C384        H396   1.082       .  S
C385        H397   1.081       .  S
C386        H398   1.079       .  S
C387        H399   1.080       .  S
C388        H400   1.080       .  S
C389        C426   1.496       .  S
C390        C477   1.491       .  S
C391        C469   1.493       .  S
C392        C404   1.494       .  S
In403       O405   2.235       .  S
In403       O406   2.237       .  S
In403       O414   2.204       .  S
In403       O408   2.259       .  S
In403       O410   2.252       .  S
In403       O411   2.264       .  S
In403       O412   2.239       .  S
In403       O415   2.204       .  S
C404        O410   1.266       .  A
C404        O412   1.259       .  A
O405        C413   1.261       .  A
O406        C413   1.266       .  A
C407        C521   1.470       .  S
C407        O414   1.261       .  A
C407        O408   1.268       .  A
C409        C545   1.475       .  S
C409        O411   1.267       .  A
C409        O415   1.260       .  A
C413        C450   1.494       .  S
In416       O418   2.234       .  S
In416       O419   2.249       .  S
In416       O427   2.211       .  S
In416       O421   2.268       .  S
In416       O423   2.257       .  S
In416       O424   2.262       .  S
In416       O425   2.239       .  S
In416       O428   2.219       .  S
C417        C451   1.496       .  S
C417        O423   1.266       .  A
C417        O425   1.259       .  A
O418        C426   1.261       .  A
O419        C426   1.266       .  A
C420        C537   1.474       .  S
C420        O427   1.260       .  A
C420        O421   1.268       .  A
C422        C529   1.477       .  S
C422        O424   1.266       .  A
C422        O428   1.261       .  A
N429        H461   1.041       .  S
N429        C434   1.356       .  A
N429        C433   1.358       .  A
N430        C438   1.355       .  A
N431        H462   1.041       .  S
N431        C436   1.359       .  A
N431        C435   1.357       .  A
N432        C439   1.356   1_545  A
C433        C441   1.387       .  A
C433        C449   1.418       .  A
C434        C450   1.418       .  A
C434        C442   1.388       .  A
C435        C443   1.389       .  A
C435        C452   1.422       .  A
C436        C451   1.421       .  A
C436        C444   1.388       .  A
C437        C449   1.419       .  A
C437        C445   1.384       .  A
C438        C452   1.425       .  A
C438        C446   1.390       .  A
C439        C447   1.386       .  A
C439        C450   1.421       .  A
C440        C448   1.387       .  A
C440        C451   1.424       .  A
C441        C442   1.366       .  A
C441        H453   1.082       .  S
C442        H454   1.082       .  S
C443        C444   1.362       .  A
C443        H455   1.081       .  S
C444        H456   1.081       .  S
C445        H457   1.081       .  S
C446        H458   1.078       .  S
C447        H459   1.080       .  S
C448        H460   1.080       .  S
C449        C464   1.495       .  S
C452        C482   1.493       .  S
In463       O465   2.206       .  S
In463       O466   2.254       .  S
In463       O474   2.205       .  S
In463       O468   2.254       .  S
In463       O470   2.252       .  S
In463       O471   2.251       .  S
In463       O472   2.226       .  S
In463       O475   2.210       .  S
C464        O470   1.269       .  A
C464        O472   1.262       .  A
O465        C473   1.262       .  A
O466        C473   1.270       .  A
C467        C505   1.473       .  S
C467        O474   1.263       .  A
C467        O468   1.271       .  A
C469        O471   1.270       .  A
C469        O475   1.261       .  A
C473        C489   1.473       .  S
In476       O478   2.209       .  S
In476       O479   2.265       .  S
In476       O487   2.197       .  S
In476       O481   2.256       .  S
In476       O483   2.239       .  S
In476       O484   2.239       .  S
In476       O485   2.225       .  S
In476       O488   2.229       .  S
C477        O483   1.266       .  A
C477        O485   1.260       .  A
O478        C486   1.261       .  A
O479        C486   1.268       .  A
C480        C497   1.475       .  S
C480        O487   1.262       .  A
C480        O481   1.269       .  A
C482        O484   1.266       .  A
C482        O488   1.258       .  A
C486        C513   1.479       .  S
C489        C490   1.404       .  A
C489        C494   1.406       .  A
C490        C491   1.393       .  A
C490        H499   1.083       .  S
C491        C492   1.400       .  A
C491        H500   1.084       .  S
C492        C498   1.397       .  A
C492        C493   1.413       .  A
C493        C495   1.405       .  A
C493        C494   1.407       .  A
C494        H501   1.084       .  S
C495        C496   1.402       .  A
C495        H502   1.083       .  S
C496        C497   1.404       .  A
C496        H503   1.083       .  S
C497        C498   1.405       .  A
C498        H504   1.085       .  S
C505        C506   1.404       .  A
C505        C510   1.406       .  A
C506        C507   1.393   1_554  A
C506        H515   1.084       .  S
C507        C508   1.400       .  A
C507        H516   1.084       .  S
C508        C698   1.399       .  A
C508        C693   1.413       .  A
C509        C692   1.413       .  A
C509        C511   1.405       .  A
C509        C694   1.408       .  A
C510        C693   1.408   1_554  A
C510        H701   1.084       .  S
C511        C512   1.403       .  A
C511        H518   1.083       .  S
C512        C513   1.405       .  A
C512        H519   1.083       .  S
C513        C514   1.405       .  A
C514        C692   1.399       .  A
C514        H704   1.084       .  S
H517        C694   1.084       .  S
H520        C698   1.084       .  S
C521        C522   1.403       .  A
C521        C526   1.406       .  A
C522        C523   1.393       .  A
C522        H531   1.084       .  S
C523        C524   1.400       .  A
C523        H532   1.084       .  S
C524        C530   1.399       .  A
C524        C525   1.414       .  A
C525        C527   1.406       .  A
C525        C526   1.408       .  A
C526        H533   1.084       .  S
C527        C528   1.403       .  A
C527        H534   1.083       .  S
C528        C529   1.404       .  A
C528        H535   1.083       .  S
C529        C530   1.404       .  A
C530        H536   1.085       .  S
C537        C538   1.404       .  A
C537        C542   1.408       .  A
C538        C539   1.392       .  A
C538        H547   1.083       .  S
C539        C724   1.399       .  A
C539        H732   1.084       .  S
C540        C723   1.399       .  A
C540        C546   1.396       .  A
C540        C725   1.413       .  A
C541        C724   1.413       .  A
C541        C727   1.407       .  A
C541        C542   1.409       .  A
C542        H549   1.084       .  S
C543        C725   1.407       .  A
C543        C544   1.404       .  A
C543        H550   1.083   1_554  S
C544        C545   1.404       .  A
C544        H551   1.083       .  S
C545        C546   1.403       .  A
C546        H552   1.085       .  S
H548        C723   1.084       .  S
N553        H585   1.042       .  S
N553       C1294   1.356       .  A
N553        C557   1.358   1_655  A
N554        C562   1.357       .  A
N555        H586   1.041       .  S
N555        C560   1.357       .  A
N555       C1295   1.356       .  A
N556        C564   1.356       .  A
C557        C565   1.388       .  A
C557        C573   1.417       .  A
C558       N1289   1.356       .  A
C558        C574   1.415       .  A
C558        C566   1.387       .  A
C559       N1291   1.356   1_455  A
C559        C567   1.387       .  A
C559        C576   1.415       .  A
C560        C575   1.416       .  A
C560        C568   1.388       .  A
C561        C573   1.419       .  A
C561        C569   1.385       .  A
C562        C576   1.421       .  A
C562        C570   1.387       .  A
C563        C571   1.386       .  A
C563        C574   1.419       .  A
C564        C572   1.387       .  A
C564        C575   1.421       .  A
C565       C1302   1.364   1_455  A
C565        H577   1.082       .  S
C566       C1301   1.364       .  A
C566        H578   1.082       .  S
C567       C1304   1.364   1_455  A
C567        H579   1.082       .  S
C568       C1303   1.364       .  A
C568        H580   1.082       .  S
C569        H581   1.081       .  S
C570        H582   1.079       .  S
C571        H583   1.080       .  S
C572        H584   1.080       .  S
C573        C610   1.496       .  S
C574        C661   1.491       .  S
C575        C653   1.493       .  S
C576        C588   1.494       .  S
In587       O589   2.235       .  S
In587       O590   2.237       .  S
In587       O598   2.204       .  S
In587       O592   2.259       .  S
In587       O594   2.252       .  S
In587       O595   2.264       .  S
In587       O596   2.239       .  S
In587       O599   2.204       .  S
C588        O594   1.266       .  A
C588        O596   1.259       .  A
O589        C597   1.261       .  A
O590        C597   1.266       .  A
C591        C705   1.470       .  S
C591        O598   1.261       .  A
C591        O592   1.268       .  A
C593        C729   1.475       .  S
C593        O595   1.267       .  A
C593        O599   1.260       .  A
C597        C634   1.493       .  S
In600       O602   2.234       .  S
In600       O603   2.249       .  S
In600       O611   2.211       .  S
In600       O605   2.268       .  S
In600       O607   2.257       .  S
In600       O608   2.262       .  S
In600       O609   2.239       .  S
In600       O612   2.219       .  S
C601        C635   1.496       .  S
C601        O607   1.266       .  A
C601        O609   1.259       .  A
O602        C610   1.261       .  A
O603        C610   1.266       .  A
C604        C721   1.474       .  S
C604        O611   1.260       .  A
C604        O605   1.268       .  A
C606        C713   1.477       .  S
C606        O608   1.266       .  A
C606        O612   1.261       .  A
N613        H645   1.041       .  S
N613        C618   1.356       .  A
N613        C617   1.358       .  A
N614        C622   1.355       .  A
N615        H646   1.040       .  S
N615        C620   1.359       .  A
N615        C619   1.357       .  A
N616        C623   1.356   1_545  A
C617        C625   1.388       .  A
C617        C633   1.418       .  A
C618        C634   1.418       .  A
C618        C626   1.388       .  A
C619        C627   1.389       .  A
C619        C636   1.422       .  A
C620        C635   1.421       .  A
C620        C628   1.388       .  A
C621        C633   1.419       .  A
C621        C629   1.384       .  A
C622        C636   1.425       .  A
C622        C630   1.390       .  A
C623        C631   1.386       .  A
C623        C634   1.421       .  A
C624        C632   1.387       .  A
C624        C635   1.424       .  A
C625        C626   1.366       .  A
C625        H637   1.082       .  S
C626        H638   1.082       .  S
C627        C628   1.362       .  A
C627        H639   1.081       .  S
C628        H640   1.081       .  S
C629        H641   1.081       .  S
C630        H642   1.078       .  S
C631        H643   1.080       .  S
C632        H644   1.080       .  S
C633        C648   1.495       .  S
C636        C666   1.493       .  S
In647       O649   2.206       .  S
In647       O650   2.254       .  S
In647       O658   2.205       .  S
In647       O652   2.254       .  S
In647       O654   2.252       .  S
In647       O655   2.251       .  S
In647       O656   2.226       .  S
In647       O659   2.210       .  S
C648        O654   1.269       .  A
C648        O656   1.262       .  A
O649        C657   1.262       .  A
O650        C657   1.270       .  A
C651        C689   1.473       .  S
C651        O658   1.263       .  A
C651        O652   1.271       .  A
C653        O655   1.270       .  A
C653        O659   1.261       .  A
C657        C673   1.473       .  S
In660       O662   2.209       .  S
In660       O663   2.265       .  S
In660       O671   2.197       .  S
In660       O665   2.256       .  S
In660       O667   2.239       .  S
In660       O668   2.239       .  S
In660       O669   2.225       .  S
In660       O672   2.229       .  S
C661        O667   1.266       .  A
C661        O669   1.260       .  A
O662        C670   1.261       .  A
O663        C670   1.268       .  A
C664        C681   1.475       .  S
C664        O671   1.262       .  A
C664        O665   1.269       .  A
C666        O668   1.266       .  A
C666        O672   1.258       .  A
C670        C697   1.479       .  S
C673        C674   1.404       .  A
C673        C678   1.406       .  A
C674        C675   1.393       .  A
C674        H683   1.083       .  S
C675        C676   1.400       .  A
C675        H684   1.084       .  S
C676        C682   1.397       .  A
C676        C677   1.413       .  A
C677        C679   1.405       .  A
C677        C678   1.407       .  A
C678        H685   1.084       .  S
C679        C680   1.402       .  A
C679        H686   1.083       .  S
C680        C681   1.404       .  A
C680        H687   1.083       .  S
C681        C682   1.405       .  A
C682        H688   1.085       .  S
C689        C690   1.404       .  A
C689        C694   1.406       .  A
C690        C691   1.393       .  A
C690        H699   1.084       .  S
C691        C692   1.400       .  A
C691        H700   1.084       .  S
C693        C695   1.405       .  A
C695        C696   1.403       .  A
C695        H702   1.083   1_556  S
C696        C697   1.405       .  A
C696        H703   1.083       .  S
C697        C698   1.405       .  A
C705        C706   1.403       .  A
C705        C710   1.406       .  A
C706        C707   1.393       .  A
C706        H715   1.084       .  S
C707        C708   1.400       .  A
C707        H716   1.084       .  S
C708        C714   1.399       .  A
C708        C709   1.414       .  A
C709        C711   1.406       .  A
C709        C710   1.408       .  A
C710        H717   1.084       .  S
C711        C712   1.403       .  A
C711        H718   1.083       .  S
C712        C713   1.404       .  A
C712        H719   1.083       .  S
C713        C714   1.404       .  A
C714        H720   1.085       .  S
C721        C722   1.404   1_556  A
C721        C726   1.408       .  A
C722        C723   1.392       .  A
C722        H731   1.083       .  S
C724        C730   1.396       .  A
C725        C726   1.409   1_554  A
C726        H733   1.084       .  S
C727        C728   1.404       .  A
C727        H734   1.083       .  S
C728        C729   1.404       .  A
C728        H735   1.083       .  S
C729        C730   1.403       .  A
C730        H736   1.085       .  S
N737        H769   1.042       .  S
N737        C741   1.358       .  A
N738       C1297   1.356       .  A
N738        C746   1.357   1_556  A
N739        H770   1.041       .  S
N739        C744   1.357       .  A
N740       C1299   1.356       .  A
N740        C748   1.356   1_556  A
C741        C749   1.388       .  A
C741        C757   1.417       .  A
C742        C758   1.415       .  A
C742        C750   1.387       .  A
C743        C751   1.387       .  A
C743        C760   1.415       .  A
C744        C759   1.416       .  A
C744        C752   1.388       .  A
C745       N1290   1.356   1_545  A
C745        C757   1.419       .  A
C745        C753   1.385       .  A
C746        C760   1.421       .  A
C746        C754   1.387       .  A
C747       N1292   1.356   1_545  A
C747        C755   1.386       .  A
C747        C758   1.419       .  A
C748        C756   1.387       .  A
C748        C759   1.421       .  A
C749        H761   1.082       .  S
C750        H762   1.082       .  S
C751        H763   1.082       .  S
C752        H764   1.082       .  S
C753       C1306   1.367   1_545  A
C753        H765   1.081       .  S
C754       C1305   1.367   1_554  A
C754        H766   1.079       .  S
C755       C1308   1.365   1_545  A
C755        H767   1.080       .  S
C756       C1307   1.365   1_554  A
C756        H768   1.080       .  S
C757        C794   1.496       .  S
C758        C845   1.491       .  S
C759        C837   1.493       .  S
C760        C772   1.494       .  S
In771       O773   2.235       .  S
In771       O774   2.237       .  S
In771       O782   2.204       .  S
In771       O776   2.259       .  S
In771       O778   2.252       .  S
In771       O779   2.264       .  S
In771       O780   2.239       .  S
In771       O783   2.204       .  S
C772        O778   1.266       .  A
C772        O780   1.259       .  A
O773        C781   1.261       .  A
O774        C781   1.266       .  A
C775        C889   1.470       .  S
C775        O782   1.261       .  A
C775        O776   1.268       .  A
C777        C913   1.475       .  S
C777        O779   1.267       .  A
C777        O783   1.260       .  A
C781        C818   1.494       .  S
In784       O786   2.234       .  S
In784       O787   2.249       .  S
In784       O795   2.211       .  S
In784       O789   2.268       .  S
In784       O791   2.257       .  S
In784       O792   2.262       .  S
In784       O793   2.239       .  S
In784       O796   2.219       .  S
C785        C819   1.496       .  S
C785        O791   1.266       .  A
C785        O793   1.259       .  A
O786        C794   1.261       .  A
O787        C794   1.266       .  A
C788        C905   1.474       .  S
C788        O795   1.260       .  A
C788        O789   1.268       .  A
C790        C897   1.477       .  S
C790        O792   1.266       .  A
C790        O796   1.261       .  A
N797        H829   1.041       .  S
N797        C802   1.356       .  A
N797        C801   1.358       .  A
N798       C1173   1.356   1_545  A
N798        C806   1.355       .  A
N799        H830   1.041       .  S
N799        C804   1.359       .  A
N799        C803   1.357       .  A
N800        C807   1.356       .  A
N800       C1176   1.356       .  A
C801        C809   1.387       .  A
C801        C817   1.418       .  A
C802        C818   1.418       .  A
C802        C810   1.388       .  A
C803        C811   1.389       .  A
C803        C820   1.422       .  A
C804        C819   1.421       .  A
C804        C812   1.388       .  A
C805       N1166   1.356       .  A
C805        C817   1.419       .  A
C805        C813   1.384       .  A
C806        C820   1.425       .  A
C806        C814   1.390       .  A
C807        C815   1.386       .  A
C807        C818   1.421       .  A
C808       N1168   1.356       .  A
C808        C816   1.387       .  A
C808        C819   1.424       .  A
C809        C810   1.366       .  A
C809        H821   1.082       .  S
C810        H822   1.082       .  S
C811        C812   1.362       .  A
C811        H823   1.081       .  S
C812        H824   1.081       .  S
C813       C1182   1.368       .  A
C813        H825   1.081       .  S
C814       C1181   1.368   1_545  A
C814        H826   1.078       .  S
C815       C1184   1.368       .  A
C815        H827   1.080       .  S
C816       C1183   1.368   1_545  A
C816        H828   1.080       .  S
C817        C832   1.495       .  S
C820        C850   1.493       .  S
In831       O833   2.206       .  S
In831       O834   2.254       .  S
In831       O842   2.205       .  S
In831       O836   2.254       .  S
In831       O838   2.252       .  S
In831       O839   2.251       .  S
In831       O840   2.226       .  S
In831       O843   2.210       .  S
C832        O838   1.269       .  A
C832        O840   1.262       .  A
O833        C841   1.262       .  A
O834        C841   1.270       .  A
C835        C873   1.473       .  S
C835        O842   1.263       .  A
C835        O836   1.271       .  A
C837        O839   1.270       .  A
C837        O843   1.261       .  A
C841        C857   1.473       .  S
In844       O846   2.209       .  S
In844       O847   2.265       .  S
In844       O855   2.197       .  S
In844       O849   2.256       .  S
In844       O851   2.239       .  S
In844       O852   2.239       .  S
In844       O853   2.225       .  S
In844       O856   2.229       .  S
C845        O851   1.266       .  A
C845        O853   1.260       .  A
O846        C854   1.261       .  A
O847        C854   1.268       .  A
C848        C865   1.475       .  S
C848        O855   1.262       .  A
C848        O849   1.269       .  A
C850        O852   1.266       .  A
C850        O856   1.258       .  A
C854        C881   1.479       .  S
C857        C858   1.404       .  A
C857        C862   1.406       .  A
C858        C859   1.393       .  A
C858        H867   1.083       .  S
C859        C860   1.400       .  A
C859        H868   1.084       .  S
C860        C866   1.397       .  A
C860        C861   1.413       .  A
C861        C863   1.405       .  A
C861        C862   1.407       .  A
C862        H869   1.084       .  S
C863        C864   1.402       .  A
C863        H870   1.083       .  S
C864        C865   1.404       .  A
C864        H871   1.083       .  S
C865        C866   1.405       .  A
C866        H872   1.085       .  S
C873        C874   1.404       .  A
C873        C878   1.406       .  A
C874        C875   1.393   1_554  A
C874        H883   1.084       .  S
C875        C876   1.400       .  A
C875        H884   1.084       .  S
C876       C1066   1.399       .  A
C876       C1061   1.413       .  A
C877       C1060   1.413       .  A
C877        C879   1.405       .  A
C877       C1062   1.408       .  A
C878       C1061   1.408   1_554  A
C878       H1069   1.084       .  S
C879        C880   1.403       .  A
C879        H886   1.083       .  S
C880        C881   1.405       .  A
C880        H887   1.083       .  S
C881        C882   1.405       .  A
C882       C1060   1.399       .  A
C882       H1072   1.084       .  S
H885       C1062   1.084       .  S
H888       C1066   1.084       .  S
C889        C890   1.403       .  A
C889        C894   1.406       .  A
C890        C891   1.393       .  A
C890        H899   1.084       .  S
C891        C892   1.400       .  A
C891        H900   1.084       .  S
C892        C898   1.399       .  A
C892        C893   1.414       .  A
C893        C895   1.406       .  A
C893        C894   1.408       .  A
C894        H901   1.084       .  S
C895        C896   1.403       .  A
C895        H902   1.083       .  S
C896        C897   1.404       .  A
C896        H903   1.083       .  S
C897        C898   1.404       .  A
C898        H904   1.085       .  S
C905        C906   1.404       .  A
C905        C910   1.408       .  A
C906        C907   1.392       .  A
C906        H915   1.083       .  S
C907       C1092   1.399       .  A
C907       H1100   1.084       .  S
C908       C1091   1.399       .  A
C908        C914   1.396       .  A
C908       C1093   1.413       .  A
C909       C1092   1.413       .  A
C909       C1095   1.407       .  A
C909        C910   1.409       .  A
C910        H917   1.084       .  S
C911       C1093   1.407       .  A
C911        C912   1.404       .  A
C911        H918   1.083   1_554  S
C912        C913   1.404       .  A
C912        H919   1.083       .  S
C913        C914   1.403       .  A
C914        H920   1.085       .  S
H916       C1091   1.084       .  S
N921        H953   1.042       .  S
N921        C925   1.358       .  A
N922       C1113   1.356       .  A
N922        C930   1.357       .  A
N923        H954   1.041       .  S
N923        C928   1.357       .  A
N924       C1115   1.356       .  A
N924        C932   1.356       .  A
C925        C933   1.388       .  A
C925        C941   1.417       .  A
C926        C942   1.415       .  A
C926        C934   1.387       .  A
C927        C935   1.387       .  A
C927        C944   1.415       .  A
C928        C943   1.416       .  A
C928        C936   1.388       .  A
C929       N1106   1.356   1_545  A
C929        C941   1.419       .  A
C929        C937   1.385       .  A
C930        C944   1.421       .  A
C930        C938   1.387       .  A
C931       N1108   1.356   1_545  A
C931        C939   1.386       .  A
C931        C942   1.419       .  A
C932        C940   1.387       .  A
C932        C943   1.421       .  A
C933        H945   1.082       .  S
C934        H946   1.082       .  S
C935        H947   1.082       .  S
C936        H948   1.082       .  S
C937       C1122   1.367   1_546  A
C937        H949   1.081       .  S
C938       C1121   1.367       .  A
C938        H950   1.079       .  S
C939       C1124   1.365   1_546  A
C939        H951   1.080       .  S
C940       C1123   1.365       .  A
C940        H952   1.080       .  S
C941        C978   1.496       .  S
C942       C1029   1.491       .  S
C943       C1021   1.493       .  S
C944        C956   1.494       .  S
In955       O957   2.235       .  S
In955       O958   2.237       .  S
In955       O966   2.204       .  S
In955       O960   2.259       .  S
In955       O962   2.252       .  S
In955       O963   2.264       .  S
In955       O964   2.239       .  S
In955       O967   2.204       .  S
C956        O962   1.266       .  A
C956        O964   1.259       .  A
O957        C965   1.261       .  A
O958        C965   1.266       .  A
C959       C1073   1.470       .  S
C959        O966   1.261       .  A
C959        O960   1.268       .  A
C961       C1097   1.475       .  S
C961        O963   1.267       .  A
C961        O967   1.260       .  A
C965       C1002   1.493       .  S
In968       O970   2.234       .  S
In968       O971   2.249       .  S
In968       O979   2.211       .  S
In968       O973   2.268       .  S
In968       O975   2.257       .  S
In968       O976   2.262       .  S
In968       O977   2.239       .  S
In968       O980   2.219       .  S
C969       C1003   1.496       .  S
C969        O975   1.266       .  A
C969        O977   1.259       .  A
O970        C978   1.261       .  A
O971        C978   1.266       .  A
C972       C1089   1.474       .  S
C972        O979   1.260       .  A
C972        O973   1.268       .  A
C974       C1081   1.477       .  S
C974        O976   1.266       .  A
C974        O980   1.261       .  A
N981       H1013   1.041       .  S
N981        C986   1.356       .  A
N981        C985   1.358       .  A
N982       C1357   1.356   1_545  A
N982        C990   1.355       .  A
N983       H1014   1.040       .  S
N983        C988   1.359       .  A
N983        C987   1.357       .  A
N984        C991   1.356       .  A
N984       C1360   1.356       .  A
C985        C993   1.388       .  A
C985       C1001   1.418       .  A
C986       C1002   1.418       .  A
C986        C994   1.388       .  A
C987        C995   1.389       .  A
C987       C1004   1.422       .  A
C988       C1003   1.421       .  A
C988        C996   1.388       .  A
C989       N1350   1.356       .  A
C989       C1001   1.419       .  A
C989        C997   1.384       .  A
C990       C1004   1.425       .  A
C990        C998   1.390       .  A
C991        C999   1.386       .  A
C991       C1002   1.421       .  A
C992       N1352   1.356       .  A
C992       C1000   1.387       .  A
C992       C1003   1.424       .  A
C993        C994   1.366       .  A
C993       H1005   1.082       .  S
C994       H1006   1.082       .  S
C995        C996   1.362       .  A
C995       H1007   1.081       .  S
C996       H1008   1.081       .  S
C997       C1366   1.368       .  A
C997       H1009   1.081       .  S
C998       C1365   1.368   1_545  A
C998       H1010   1.078       .  S
C999       C1368   1.368       .  A
C999       H1011   1.080       .  S
C1000      C1367   1.368   1_545  A
C1000      H1012   1.080       .  S
C1001      C1016   1.495       .  S
C1004      C1034   1.493       .  S
In1015     O1017   2.206       .  S
In1015     O1018   2.254       .  S
In1015     O1026   2.205       .  S
In1015     O1020   2.254       .  S
In1015     O1022   2.252       .  S
In1015     O1023   2.251       .  S
In1015     O1024   2.226       .  S
In1015     O1027   2.210       .  S
C1016      O1022   1.269       .  A
C1016      O1024   1.262       .  A
O1017      C1025   1.262       .  A
O1018      C1025   1.270       .  A
C1019      C1057   1.473       .  S
C1019      O1026   1.263       .  A
C1019      O1020   1.271       .  A
C1021      O1023   1.270       .  A
C1021      O1027   1.261       .  A
C1025      C1041   1.473       .  S
In1028     O1030   2.209       .  S
In1028     O1031   2.265       .  S
In1028     O1039   2.196       .  S
In1028     O1033   2.256       .  S
In1028     O1035   2.239       .  S
In1028     O1036   2.239       .  S
In1028     O1037   2.225       .  S
In1028     O1040   2.229       .  S
C1029      O1035   1.266       .  A
C1029      O1037   1.260       .  A
O1030      C1038   1.261       .  A
O1031      C1038   1.268       .  A
C1032      C1049   1.475       .  S
C1032      O1039   1.262       .  A
C1032      O1033   1.269       .  A
C1034      O1036   1.266       .  A
C1034      O1040   1.258       .  A
C1038      C1065   1.479       .  S
C1041      C1042   1.404       .  A
C1041      C1046   1.406       .  A
C1042      C1043   1.393       .  A
C1042      H1051   1.083       .  S
C1043      C1044   1.400       .  A
C1043      H1052   1.084       .  S
C1044      C1050   1.397       .  A
C1044      C1045   1.413       .  A
C1045      C1047   1.405       .  A
C1045      C1046   1.407       .  A
C1046      H1053   1.084       .  S
C1047      C1048   1.402       .  A
C1047      H1054   1.083       .  S
C1048      C1049   1.404       .  A
C1048      H1055   1.083       .  S
C1049      C1050   1.405       .  A
C1050      H1056   1.085       .  S
C1057      C1058   1.404       .  A
C1057      C1062   1.406       .  A
C1058      C1059   1.393       .  A
C1058      H1067   1.084       .  S
C1059      C1060   1.400       .  A
C1059      H1068   1.084       .  S
C1061      C1063   1.405       .  A
C1063      C1064   1.403       .  A
C1063      H1070   1.083   1_556  S
C1064      C1065   1.405       .  A
C1064      H1071   1.083       .  S
C1065      C1066   1.405       .  A
C1073      C1074   1.403       .  A
C1073      C1078   1.406       .  A
C1074      C1075   1.393       .  A
C1074      H1083   1.084       .  S
C1075      C1076   1.400       .  A
C1075      H1084   1.084       .  S
C1076      C1082   1.399       .  A
C1076      C1077   1.414       .  A
C1077      C1079   1.406       .  A
C1077      C1078   1.408       .  A
C1078      H1085   1.084       .  S
C1079      C1080   1.403       .  A
C1079      H1086   1.083       .  S
C1080      C1081   1.404       .  A
C1080      H1087   1.083       .  S
C1081      C1082   1.404       .  A
C1082      H1088   1.085       .  S
C1089      C1090   1.404   1_556  A
C1089      C1094   1.408       .  A
C1090      C1091   1.392       .  A
C1090      H1099   1.083       .  S
C1092      C1098   1.396       .  A
C1093      C1094   1.409   1_554  A
C1094      H1101   1.084       .  S
C1095      C1096   1.404       .  A
C1095      H1102   1.083       .  S
C1096      C1097   1.404       .  A
C1096      H1103   1.083       .  S
C1097      C1098   1.403       .  A
C1098      H1104   1.085       .  S
N1105      H1137   1.042       .  S
N1105      C1109   1.358       .  A
N1106      C1114   1.357   1_556  A
N1107      H1138   1.041       .  S
N1107      C1112   1.357       .  A
N1108      C1116   1.356   1_556  A
C1109      C1117   1.388       .  A
C1109      C1125   1.417       .  A
C1110      C1126   1.415       .  A
C1110      C1118   1.387       .  A
C1111      C1119   1.387       .  A
C1111      C1128   1.415       .  A
C1112      C1127   1.416       .  A
C1112      C1120   1.388       .  A
C1113      C1125   1.419       .  A
C1113      C1121   1.385       .  A
C1114      C1128   1.421       .  A
C1114      C1122   1.387       .  A
C1115      C1123   1.386       .  A
C1115      C1126   1.419       .  A
C1116      C1124   1.387       .  A
C1116      C1127   1.421       .  A
C1117      H1129   1.082       .  S
C1118      H1130   1.082       .  S
C1119      H1131   1.082       .  S
C1120      H1132   1.082       .  S
C1121      H1133   1.081       .  S
C1122      H1134   1.079       .  S
C1123      H1135   1.080       .  S
C1124      H1136   1.080       .  S
C1125      C1162   1.496       .  S
C1126      C1213   1.491       .  S
C1127      C1205   1.493       .  S
C1128      C1140   1.494       .  S
In1139     O1141   2.235       .  S
In1139     O1142   2.237       .  S
In1139     O1150   2.204       .  S
In1139     O1144   2.259       .  S
In1139     O1146   2.252       .  S
In1139     O1147   2.264       .  S
In1139     O1148   2.239       .  S
In1139     O1151   2.204       .  S
C1140      O1146   1.266       .  A
C1140      O1148   1.259       .  A
O1141      C1149   1.261       .  A
O1142      C1149   1.266       .  A
C1143      C1257   1.470       .  S
C1143      O1150   1.261       .  A
C1143      O1144   1.268       .  A
C1145      C1281   1.475       .  S
C1145      O1147   1.267       .  A
C1145      O1151   1.260       .  A
C1149      C1186   1.494       .  S
In1152     O1154   2.234       .  S
In1152     O1155   2.249       .  S
In1152     O1163   2.211       .  S
In1152     O1157   2.268       .  S
In1152     O1159   2.257       .  S
In1152     O1160   2.262       .  S
In1152     O1161   2.239       .  S
In1152     O1164   2.219       .  S
C1153      C1187   1.496       .  S
C1153      O1159   1.266       .  A
C1153      O1161   1.259       .  A
O1154      C1162   1.261       .  A
O1155      C1162   1.266       .  A
C1156      C1273   1.474       .  S
C1156      O1163   1.260       .  A
C1156      O1157   1.268       .  A
C1158      C1265   1.477       .  S
C1158      O1160   1.266       .  A
C1158      O1164   1.261       .  A
N1165      H1197   1.041       .  S
N1165      C1170   1.356       .  A
N1165      C1169   1.358       .  A
N1166      C1174   1.355       .  A
N1167      H1198   1.041       .  S
N1167      C1172   1.359       .  A
N1167      C1171   1.357       .  A
N1168      C1175   1.356   1_545  A
C1169      C1177   1.387       .  A
C1169      C1185   1.418       .  A
C1170      C1186   1.418       .  A
C1170      C1178   1.388       .  A
C1171      C1179   1.389       .  A
C1171      C1188   1.422       .  A
C1172      C1187   1.421       .  A
C1172      C1180   1.388       .  A
C1173      C1185   1.419       .  A
C1173      C1181   1.384       .  A
C1174      C1188   1.425       .  A
C1174      C1182   1.390       .  A
C1175      C1183   1.386       .  A
C1175      C1186   1.421       .  A
C1176      C1184   1.387       .  A
C1176      C1187   1.424       .  A
C1177      C1178   1.366       .  A
C1177      H1189   1.082       .  S
C1178      H1190   1.082       .  S
C1179      C1180   1.362       .  A
C1179      H1191   1.081       .  S
C1180      H1192   1.081       .  S
C1181      H1193   1.081       .  S
C1182      H1194   1.078       .  S
C1183      H1195   1.080       .  S
C1184      H1196   1.080       .  S
C1185      C1200   1.495       .  S
C1188      C1218   1.493       .  S
In1199     O1201   2.206       .  S
In1199     O1202   2.254       .  S
In1199     O1210   2.205       .  S
In1199     O1204   2.254       .  S
In1199     O1206   2.252       .  S
In1199     O1207   2.251       .  S
In1199     O1208   2.226       .  S
In1199     O1211   2.210       .  S
C1200      O1206   1.269       .  A
C1200      O1208   1.262       .  A
O1201      C1209   1.262       .  A
O1202      C1209   1.270       .  A
C1203      C1241   1.473       .  S
C1203      O1210   1.263       .  A
C1203      O1204   1.271       .  A
C1205      O1207   1.270       .  A
C1205      O1211   1.261       .  A
C1209      C1225   1.473       .  S
In1212     O1214   2.209       .  S
In1212     O1215   2.265       .  S
In1212     O1223   2.197       .  S
In1212     O1217   2.256       .  S
In1212     O1219   2.239       .  S
In1212     O1220   2.239       .  S
In1212     O1221   2.225       .  S
In1212     O1224   2.229       .  S
C1213      O1219   1.266       .  A
C1213      O1221   1.260       .  A
O1214      C1222   1.261       .  A
O1215      C1222   1.268       .  A
C1216      C1233   1.475       .  S
C1216      O1223   1.262       .  A
C1216      O1217   1.269       .  A
C1218      O1220   1.266       .  A
C1218      O1224   1.258       .  A
C1222      C1249   1.479       .  S
C1225      C1226   1.404       .  A
C1225      C1230   1.406       .  A
C1226      C1227   1.393       .  A
C1226      H1235   1.083       .  S
C1227      C1228   1.400       .  A
C1227      H1236   1.084       .  S
C1228      C1234   1.397       .  A
C1228      C1229   1.413       .  A
C1229      C1231   1.405       .  A
C1229      C1230   1.407       .  A
C1230      H1237   1.084       .  S
C1231      C1232   1.402       .  A
C1231      H1238   1.083       .  S
C1232      C1233   1.404       .  A
C1232      H1239   1.083       .  S
C1233      C1234   1.405       .  A
C1234      H1240   1.085       .  S
C1241      C1242   1.404       .  A
C1241      C1246   1.406       .  A
C1242      C1243   1.393   1_554  A
C1242      H1251   1.084       .  S
C1243      C1244   1.400       .  A
C1243      H1252   1.084       .  S
C1244      C1434   1.399       .  A
C1244      C1429   1.413       .  A
C1245      C1428   1.413       .  A
C1245      C1247   1.405       .  A
C1245      C1430   1.408       .  A
C1246      C1429   1.408   1_554  A
C1246      H1437   1.084       .  S
C1247      C1248   1.403       .  A
C1247      H1254   1.083       .  S
C1248      C1249   1.405       .  A
C1248      H1255   1.083       .  S
C1249      C1250   1.405       .  A
C1250      C1428   1.399       .  A
C1250      H1440   1.084       .  S
H1253      C1430   1.084       .  S
H1256      C1434   1.084       .  S
C1257      C1258   1.403       .  A
C1257      C1262   1.406       .  A
C1258      C1259   1.393       .  A
C1258      H1267   1.084       .  S
C1259      C1260   1.400       .  A
C1259      H1268   1.084       .  S
C1260      C1266   1.399       .  A
C1260      C1261   1.414       .  A
C1261      C1263   1.406       .  A
C1261      C1262   1.408       .  A
C1262      H1269   1.084       .  S
C1263      C1264   1.403       .  A
C1263      H1270   1.083       .  S
C1264      C1265   1.404       .  A
C1264      H1271   1.083       .  S
C1265      C1266   1.404       .  A
C1266      H1272   1.085       .  S
C1273      C1274   1.404       .  A
C1273      C1278   1.408       .  A
C1274      C1275   1.392       .  A
C1274      H1283   1.083       .  S
C1275      C1460   1.399       .  A
C1275      H1468   1.084       .  S
C1276      C1459   1.399       .  A
C1276      C1282   1.396       .  A
C1276      C1461   1.413       .  A
C1277      C1460   1.413       .  A
C1277      C1463   1.407       .  A
C1277      C1278   1.409       .  A
C1278      H1285   1.084       .  S
C1279      C1461   1.407       .  A
C1279      C1280   1.404       .  A
C1279      H1286   1.083   1_554  S
C1280      C1281   1.404       .  A
C1280      H1287   1.083       .  S
C1281      C1282   1.403       .  A
C1282      H1288   1.085       .  S
H1284      C1459   1.084       .  S
N1289      H1321   1.042       .  S
N1289      C1293   1.358       .  A
N1290      C1298   1.357       .  A
N1291      H1322   1.041       .  S
N1291      C1296   1.357       .  A
N1292      C1300   1.356       .  A
C1293      C1301   1.388       .  A
C1293      C1309   1.417       .  A
C1294      C1310   1.415       .  A
C1294      C1302   1.387       .  A
C1295      C1303   1.387       .  A
C1295      C1312   1.415       .  A
C1296      C1311   1.416       .  A
C1296      C1304   1.388       .  A
C1297      C1309   1.419       .  A
C1297      C1305   1.385       .  A
C1298      C1312   1.421       .  A
C1298      C1306   1.387       .  A
C1299      C1307   1.386       .  A
C1299      C1310   1.419       .  A
C1300      C1308   1.387       .  A
C1300      C1311   1.421       .  A
C1301      H1313   1.082       .  S
C1302      H1314   1.082       .  S
C1303      H1315   1.082       .  S
C1304      H1316   1.082       .  S
C1305      H1317   1.081       .  S
C1306      H1318   1.079       .  S
C1307      H1319   1.080       .  S
C1308      H1320   1.080       .  S
C1309      C1346   1.496       .  S
C1310      C1397   1.491       .  S
C1311      C1389   1.493       .  S
C1312      C1324   1.494       .  S
In1323     O1325   2.235       .  S
In1323     O1326   2.237       .  S
In1323     O1334   2.204       .  S
In1323     O1328   2.259       .  S
In1323     O1330   2.252       .  S
In1323     O1331   2.264       .  S
In1323     O1332   2.239       .  S
In1323     O1335   2.204       .  S
C1324      O1330   1.266       .  A
C1324      O1332   1.259       .  A
O1325      C1333   1.261       .  A
O1326      C1333   1.266       .  A
C1327      C1441   1.470       .  S
C1327      O1334   1.261       .  A
C1327      O1328   1.268       .  A
C1329      C1465   1.475       .  S
C1329      O1331   1.267       .  A
C1329      O1335   1.260       .  A
C1333      C1370   1.493       .  S
In1336     O1338   2.234       .  S
In1336     O1339   2.249       .  S
In1336     O1347   2.211       .  S
In1336     O1341   2.268       .  S
In1336     O1343   2.257       .  S
In1336     O1344   2.262       .  S
In1336     O1345   2.239       .  S
In1336     O1348   2.219       .  S
C1337      C1371   1.496       .  S
C1337      O1343   1.266       .  A
C1337      O1345   1.259       .  A
O1338      C1346   1.261       .  A
O1339      C1346   1.266       .  A
C1340      C1457   1.474       .  S
C1340      O1347   1.260       .  A
C1340      O1341   1.268       .  A
C1342      C1449   1.477       .  S
C1342      O1344   1.266       .  A
C1342      O1348   1.261       .  A
N1349      H1381   1.041       .  S
N1349      C1354   1.356       .  A
N1349      C1353   1.358       .  A
N1350      C1358   1.355       .  A
N1351      H1382   1.040       .  S
N1351      C1356   1.359       .  A
N1351      C1355   1.357       .  A
N1352      C1359   1.356   1_545  A
C1353      C1361   1.388       .  A
C1353      C1369   1.418       .  A
C1354      C1370   1.418       .  A
C1354      C1362   1.388       .  A
C1355      C1363   1.389       .  A
C1355      C1372   1.422       .  A
C1356      C1371   1.421       .  A
C1356      C1364   1.388       .  A
C1357      C1369   1.419       .  A
C1357      C1365   1.384       .  A
C1358      C1372   1.425       .  A
C1358      C1366   1.390       .  A
C1359      C1367   1.386       .  A
C1359      C1370   1.421       .  A
C1360      C1368   1.387       .  A
C1360      C1371   1.424       .  A
C1361      C1362   1.366       .  A
C1361      H1373   1.082       .  S
C1362      H1374   1.082       .  S
C1363      C1364   1.362       .  A
C1363      H1375   1.081       .  S
C1364      H1376   1.081       .  S
C1365      H1377   1.081       .  S
C1366      H1378   1.078       .  S
C1367      H1379   1.080       .  S
C1368      H1380   1.080       .  S
C1369      C1384   1.495       .  S
C1372      C1402   1.493       .  S
In1383     O1385   2.206       .  S
In1383     O1386   2.254       .  S
In1383     O1394   2.205       .  S
In1383     O1388   2.254       .  S
In1383     O1390   2.252       .  S
In1383     O1391   2.251       .  S
In1383     O1392   2.226       .  S
In1383     O1395   2.210       .  S
C1384      O1390   1.269       .  A
C1384      O1392   1.262       .  A
O1385      C1393   1.262       .  A
O1386      C1393   1.270       .  A
C1387      C1425   1.473       .  S
C1387      O1394   1.263       .  A
C1387      O1388   1.271       .  A
C1389      O1391   1.270       .  A
C1389      O1395   1.261       .  A
C1393      C1409   1.473       .  S
In1396     O1398   2.209       .  S
In1396     O1399   2.265       .  S
In1396     O1407   2.196       .  S
In1396     O1401   2.256       .  S
In1396     O1403   2.239       .  S
In1396     O1404   2.239       .  S
In1396     O1405   2.225       .  S
In1396     O1408   2.229       .  S
C1397      O1403   1.266       .  A
C1397      O1405   1.260       .  A
O1398      C1406   1.261       .  A
O1399      C1406   1.268       .  A
C1400      C1417   1.475       .  S
C1400      O1407   1.262       .  A
C1400      O1401   1.269       .  A
C1402      O1404   1.266       .  A
C1402      O1408   1.258       .  A
C1406      C1433   1.479       .  S
C1409      C1410   1.404       .  A
C1409      C1414   1.406       .  A
C1410      C1411   1.393       .  A
C1410      H1419   1.083       .  S
C1411      C1412   1.400       .  A
C1411      H1420   1.084       .  S
C1412      C1418   1.397       .  A
C1412      C1413   1.413       .  A
C1413      C1415   1.405       .  A
C1413      C1414   1.407       .  A
C1414      H1421   1.084       .  S
C1415      C1416   1.402       .  A
C1415      H1422   1.083       .  S
C1416      C1417   1.404       .  A
C1416      H1423   1.083       .  S
C1417      C1418   1.405       .  A
C1418      H1424   1.085       .  S
C1425      C1426   1.404       .  A
C1425      C1430   1.406       .  A
C1426      C1427   1.393       .  A
C1426      H1435   1.084       .  S
C1427      C1428   1.400       .  A
C1427      H1436   1.084       .  S
C1429      C1431   1.405       .  A
C1431      C1432   1.403       .  A
C1431      H1438   1.083   1_556  S
C1432      C1433   1.405       .  A
C1432      H1439   1.083       .  S
C1433      C1434   1.405       .  A
C1441      C1442   1.403       .  A
C1441      C1446   1.406       .  A
C1442      C1443   1.393       .  A
C1442      H1451   1.084       .  S
C1443      C1444   1.400       .  A
C1443      H1452   1.084       .  S
C1444      C1450   1.399       .  A
C1444      C1445   1.414       .  A
C1445      C1447   1.406       .  A
C1445      C1446   1.408       .  A
C1446      H1453   1.084       .  S
C1447      C1448   1.403       .  A
C1447      H1454   1.083       .  S
C1448      C1449   1.404       .  A
C1448      H1455   1.083       .  S
C1449      C1450   1.404       .  A
C1450      H1456   1.085       .  S
C1457      C1458   1.404   1_556  A
C1457      C1462   1.408       .  A
C1458      C1459   1.392       .  A
C1458      H1467   1.083       .  S
C1460      C1466   1.396       .  A
C1461      C1462   1.409   1_554  A
C1462      H1469   1.084       .  S
C1463      C1464   1.404       .  A
C1463      H1470   1.083       .  S
C1464      C1465   1.404       .  A
C1464      H1471   1.083       .  S
C1465      C1466   1.403       .  A
C1466      H1472   1.085       .  S
