geometry optimzed in LAMMPS
_audit_creation_date              2020-11-30 
_audit_creation_method            'lammps2cif' 
_symmetry_space_group_name_H-M    'P1' 
_symmetry_Int_Tables_number       1 
_symmetry_cell_setting            triclinic 
loop_ 
_symmetry_equiv_pos_as_xyz 
  x,y,z 
_cell_length_a                    28.07143382 
_cell_length_b                    55.43711418789049 
_cell_length_c                    47.413663651033524 
_cell_angle_alpha                 89.93080198412035 
_cell_angle_beta                  90.10072060559398 
_cell_angle_gamma                 90.05008165657676 
loop_ 
_atom_site_label 
_atom_site_type_symbol 
_atom_site_fract_x 
_atom_site_fract_y 
_atom_site_fract_z 
_atom_site_charge 
N1          N  0.50331810  0.38491347  0.71548740    -0.27300
N2          N  0.48999891  0.36495928  0.70245886    -0.35100
C3          C  0.47692529  0.37051420  0.67587589     0.01100
C4          C  0.48297377  0.39513167  0.67189660     0.07100
C5          C  0.49944350  0.40362495  0.69759222    -0.06000
H6          H  0.46381527  0.35761484  0.66061072     0.07800
H7          H  0.50641368  0.42218592  0.70327884     0.09000
Cu8        Cu  0.48963273  0.33147363  0.72232582     0.44200
Cu9        Cu  0.52230295  0.38618425  0.75769624     0.42000
Cu10       Cu  0.50909092  0.33160143  0.79877277     0.43900
N11         N  0.49083321  0.30066497  0.74742988    -0.34700
N12         N  0.49617540  0.30075558  0.77517533    -0.28900
C13         C  0.49248106  0.27799632  0.78486600    -0.05000
C14         C  0.48500838  0.26288881  0.76211049     0.07200
C15         C  0.48438352  0.27781278  0.73873600     0.01000
H16         H  0.49516367  0.27285474  0.80683351     0.08700
H17         H  0.47833076  0.27254900  0.71705574     0.07700
N18         N  0.52566531  0.36487075  0.81626451    -0.36100
N19         N  0.53172141  0.38462402  0.80100391    -0.28300
C20         C  0.54316046  0.40300984  0.81817858    -0.03500
C21         C  0.54399369  0.39443549  0.84550332     0.05100
C22         C  0.53284199  0.37021404  0.84364836     0.03200
H23         H  0.55008217  0.42129059  0.81129311     0.08300
H24         H  0.53058849  0.35740346  0.86082377     0.07100
C25         C  0.89086601  0.55505320  0.93015560     0.80200
N26         N  0.92362641  0.54596914  0.94831757    -0.78100
C27         C  0.91112546  0.52982591  0.96845882     0.82700
N28         N  0.86473832  0.52316208  0.97071650    -0.78000
C29         C  0.83136023  0.53205474  0.95270486     0.82800
N30         N  0.84475270  0.54779691  0.93216719    -0.79700
C31         C  0.59240748  0.45846758  0.93705057     0.80200
N32         N  0.55888009  0.46556563  0.95597981    -0.78100
C33         C  0.56742864  0.48414325  0.97403718     0.82700
N34         N  0.61010950  0.49570291  0.97295233    -0.78000
C35         C  0.64356621  0.48909253  0.95383385     0.82800
N36         N  0.63439538  0.47057366  0.93599067    -0.79700
N37         N  0.04694817  0.62009506  0.71439274    -0.27300
N38         N  0.04820787  0.63997356  0.69902425    -0.35100
C39         C  0.06449961  0.63450837  0.67315207     0.01100
C40         C  0.07344274  0.60992222  0.67215803     0.07100
C41         C  0.06230095  0.60147645  0.69880373    -0.06000
H42         H  0.06932213  0.64751825  0.65638933     0.07800
H43         H  0.06364133  0.58298047  0.70607497     0.09000
Cu44       Cu  0.02651193  0.67334447  0.71396827     0.44200
Cu45       Cu  0.02145137  0.61860529  0.75509953     0.42000
Cu46       Cu  0.98705348  0.67410997  0.78752107     0.43900
N47         N  0.00870920  0.70438581  0.73591643    -0.34700
N48         N  0.99687939  0.70456378  0.76292028    -0.28900
C49         C  0.99141338  0.72748295  0.77138428    -0.05000
C50         C  0.99952725  0.74242328  0.74858470     0.07200
C51         C  0.01014010  0.72725713  0.72636283     0.01000
H52         H  0.98176612  0.73283329  0.79255655     0.08700
H53         H  0.01955639  0.73244995  0.70508433     0.07700
N54         N  0.97717579  0.64086164  0.80648175    -0.36100
N55         N  0.99038854  0.62050184  0.79438356    -0.28300
C56         C  0.97962803  0.60197039  0.81142363    -0.03500
C57         C  0.95886227  0.61107599  0.83558256     0.05100
C58         C  0.95738788  0.63581482  0.83164636     0.03200
H59         H  0.98602983  0.58322611  0.80638480     0.08300
H60         H  0.94362317  0.64915469  0.84613197     0.07100
C61         C  0.12756247  0.54739371  0.57999274     0.80200
N62         N  0.17147808  0.53745189  0.57753585    -0.78100
C63         C  0.18146731  0.52219584  0.55595337     0.82700
N64         N  0.14671697  0.51654042  0.53707536    -0.78000
C65         C  0.10225046  0.52612955  0.53946072     0.82800
N66         N  0.09335869  0.54173417  0.56086108    -0.79700
C67         C  0.42815032  0.45458045  0.57643737     0.80200
N68         N  0.38180362  0.46115118  0.57377266    -0.78100
C69         C  0.36859517  0.47829176  0.55483304     0.82700
N70         N  0.40200639  0.48821755  0.53772061    -0.78000
C71         C  0.44867893  0.48211500  0.54022804     0.82800
N72         N  0.46140199  0.46539407  0.55989606    -0.79700
N73         N  0.98030220  0.39281199  0.29112079    -0.27300
N74         N  0.97887622  0.37317748  0.30691063    -0.35100
C75         C  0.97016696  0.37954136  0.33377307     0.01100
C76         C  0.96619059  0.40443301  0.33492658     0.07100
C77         C  0.97260297  0.41217967  0.30743813    -0.06000
H78         H  0.96560617  0.36688060  0.35092928     0.07800
H79         H  0.97168302  0.43057339  0.29979947     0.09000
Cu80       Cu  0.98691257  0.33872840  0.29077183     0.44200
Cu81       Cu  0.99237199  0.39258988  0.24817994     0.42000
Cu82       Cu  0.00518716  0.33505085  0.21456616     0.43900
N83         N  0.99105927  0.30670746  0.26842994    -0.34700
N84         N  0.99554956  0.30553818  0.24069128    -0.28900
C85         C  0.99400398  0.28233191  0.23266855    -0.05000
C86         C  0.98894946  0.26823131  0.25648842     0.07200
C87         C  0.98735236  0.28419345  0.27882795     0.01000
H88         H  0.99672159  0.27620157  0.21107456     0.08700
H89         H  0.98256590  0.27984619  0.30089626     0.07700
N90         N  0.01672856  0.36739918  0.19390416    -0.36100
N91         N  0.01049339  0.38850278  0.20627904    -0.28300
C92         C  0.01956316  0.40614698  0.18766713    -0.03500
C93         C  0.03278621  0.39565909  0.16248435     0.05100
C94         C  0.03065421  0.37104825  0.16706804     0.03200
H95         H  0.01718459  0.42522966  0.19221307     0.08300
H96         H  0.03784029  0.35689902  0.15197273     0.07100
C97         C  0.39128814  0.54594477  0.08250216     0.80200
N98         N  0.42515766  0.53742549  0.06472053    -0.78100
C99         C  0.41432808  0.52055118  0.04491867     0.82700
N100        N  0.36882963  0.51224503  0.04314126    -0.78000
C101        C  0.33426006  0.52112550  0.06025829     0.82800
N102        N  0.34590722  0.53764055  0.08026067    -0.79700
C103        C  0.08331042  0.45717431  0.06939372     0.80200
N104        N  0.12902016  0.46519381  0.06916940    -0.78100
C105        C  0.14175305  0.48412242  0.05255910     0.82700
N106        N  0.10832902  0.49513549  0.03620484    -0.78000
C107        C  0.06277349  0.48674990  0.03556559     0.82800
N108        N  0.05107626  0.46761091  0.05199381    -0.79700
N109        N  0.47162544  0.61770682  0.21902739    -0.27300
N110        N  0.46598882  0.63743924  0.20370708    -0.35100
C111        C  0.45139832  0.63107741  0.17765894     0.01100
C112        C  0.44703243  0.60616850  0.17674903     0.07100
C113        C  0.46053034  0.59834980  0.20330986    -0.06000
H114        H  0.44345386  0.64366347  0.16084280     0.07800
H115        H  0.46254304  0.57990765  0.21069054     0.09000
Cu116      Cu  0.47606731  0.67192260  0.22002645     0.44200
Cu117      Cu  0.49409539  0.61759387  0.26065788     0.42000
Cu118      Cu  0.50471693  0.67374042  0.29621711     0.43900
N119        N  0.48275222  0.70332124  0.24377938    -0.34700
N120        N  0.49115100  0.70368283  0.27127431    -0.28900
C121        C  0.49087293  0.72662857  0.28028871    -0.05000
C122        C  0.48246615  0.74145750  0.25743914     0.07200
C123        C  0.47758613  0.72617247  0.23458425     0.01000
H124        H  0.49694344  0.73209757  0.30189841     0.08700
H125        H  0.46990907  0.73122036  0.21299969     0.07700
N126        N  0.52184053  0.64126222  0.31534451    -0.36100
N127        N  0.51851461  0.62055040  0.30174771    -0.28300
C128        C  0.53466768  0.60276114  0.31844024    -0.03500
C129        C  0.54901271  0.61271856  0.34381498     0.05100
C130        C  0.53991706  0.63718304  0.34126856     0.03200
H131        H  0.53616855  0.58395388  0.31244355     0.08300
H132        H  0.54733365  0.65104431  0.35671358     0.07100
C133        C  0.92179661  0.46713516  0.42846009     0.80200
N134        N  0.95766286  0.47455019  0.44557381    -0.78100
C135        C  0.94955906  0.49066833  0.46657782     0.82700
N136        N  0.90453652  0.49931363  0.47026204    -0.78000
C137        C  0.86811312  0.49136626  0.45376808     0.82800
N138        N  0.87706710  0.47540534  0.43282921    -0.79700
C139        C  0.61901274  0.55516492  0.43671270     0.80200
N140        N  0.66498589  0.54757702  0.43829334    -0.78100
C141        C  0.67756403  0.53001272  0.45685228     0.82700
N142        N  0.64378299  0.51965910  0.47329283    -0.78000
C143        C  0.59779949  0.52708726  0.47220642     0.82800
N144        N  0.58578596  0.54490104  0.45376316    -0.79700
N145        N  0.99210170  0.11862503  0.29863067    -0.27300
N146        N  0.99858553  0.13879986  0.31297988    -0.35100
C147        C  0.01123073  0.13325717  0.33957227     0.01100
C148        C  0.01340283  0.10842944  0.34187226     0.07100
C149        C  0.00087969  0.09971475  0.31558699    -0.06000
H150        H  0.01888430  0.14632513  0.35589597     0.07800
H151        H  0.99762276  0.08101772  0.30934405     0.09000
Cu152      Cu  0.99110808  0.17283968  0.29555980     0.44200
Cu153      Cu  0.96970614  0.11742816  0.25711591     0.42000
Cu154      Cu  0.95030255  0.17389728  0.22238278     0.43900
N155        N  0.98375621  0.20400200  0.27184803    -0.34700
N156        N  0.97029888  0.20418982  0.24509019    -0.28900
C157        C  0.97070141  0.22701301  0.23558031    -0.05000
C158        C  0.98445987  0.24189557  0.25745109     0.07200
C159        C  0.99239829  0.22678831  0.28017711     0.01000
H160        H  0.96085548  0.23238693  0.21441539     0.08700
H161        H  0.00407134  0.23190442  0.30109620     0.07700
N162        N  0.93352229  0.14101378  0.20413726    -0.36100
N163        N  0.94188334  0.12024432  0.21687940    -0.28300
C164        C  0.92884254  0.10212502  0.19977209    -0.03500
C165        C  0.91089788  0.11190033  0.17509447     0.05100
C166        C  0.91452625  0.13666226  0.17854437     0.03200
H167        H  0.93201853  0.08318802  0.20498344     0.08300
H168        H  0.90528971  0.15047408  0.16336120     0.07100
C169        C  0.05378005  0.05055523  0.44045863     0.80200
N170        N  0.09631133  0.03909743  0.44306241    -0.78100
C171        C  0.10264501  0.02190511  0.46309186     0.82700
N172        N  0.06616226  0.01598513  0.48047525    -0.78000
C173        C  0.02363125  0.02755152  0.47841494     0.82800
N174        N  0.01781247  0.04483229  0.45838372    -0.79700
C175        C  0.33747642  0.94611985  0.44409214     0.80200
N176        N  0.37150903  0.95345304  0.46255748    -0.78100
C177        C  0.36144656  0.97000676  0.48274824     0.82700
N178        N  0.31654019  0.97891723  0.48442143    -0.78000
C179        C  0.28172032  0.97114775  0.46674672     0.82800
N180        N  0.29243914  0.95482721  0.44641802    -0.79700
N181        N  0.47601379  0.89257401  0.22163462    -0.27300
N182        N  0.48700423  0.87310290  0.20698637    -0.35100
C183        C  0.50114517  0.87986519  0.18106999     0.01100
C184        C  0.49933964  0.90479851  0.17949044     0.07100
C185        C  0.48270126  0.91218992  0.20551775    -0.06000
H186        H  0.51279237  0.86756691  0.16478411     0.07800
H187        H  0.47567249  0.93044839  0.21234061     0.09000
Cu188      Cu  0.48338472  0.83841656  0.22326751     0.44200
Cu189      Cu  0.45428657  0.89214597  0.26311283     0.42000
Cu190      Cu  0.45323805  0.83468775  0.29776340     0.43900
N191        N  0.47825545  0.80630214  0.24555287    -0.34700
N192        N  0.46895359  0.80519384  0.27286232    -0.28900
C193        C  0.46937861  0.78203244  0.28114589    -0.05000
C194        C  0.47881192  0.76785476  0.25790646     0.07200
C195        C  0.48415967  0.78375709  0.23564639     0.01000
H196        H  0.46243651  0.77596709  0.30244697     0.08700
H197        H  0.49229704  0.77933018  0.21396619     0.07700
N198        N  0.43402622  0.86642198  0.31746510    -0.36100
N199        N  0.43458346  0.88754918  0.30460494    -0.28300
C200        C  0.41903438  0.90454156  0.32246668    -0.03500
C201        C  0.40810580  0.89361175  0.34791073     0.05100
C202        C  0.41785186  0.86935835  0.34390198     0.03200
H203        H  0.41565202  0.92345928  0.31720350     0.08300
H204        H  0.41217227  0.85475403  0.35865326     0.07100
C205        C  0.84712952  0.05513719  0.07986662     0.80200
N206        N  0.87881257  0.04545554  0.06162497    -0.78100
C207        C  0.86450023  0.03033931  0.04081244     0.82700
N208        N  0.81754838  0.02447168  0.03870225    -0.78000
C209        C  0.78511572  0.03428662  0.05666618     0.82800
N210        N  0.80021997  0.04975573  0.07708138    -0.79700
C211        C  0.54541775  0.96479683  0.08365711     0.80200
N212        N  0.58706609  0.97716248  0.08285158    -0.78100
C213        C  0.59518118  0.99378455  0.06239033     0.82700
N214        N  0.56057207  0.99846377  0.04302136    -0.78000
C215        C  0.51781464  0.98683764  0.04428160     0.82800
N216        N  0.51122776  0.96959332  0.06424881    -0.79700
N217        N  0.45205858  0.11457503  0.71781226    -0.27300
N218        N  0.46853089  0.13417713  0.70538253    -0.35100
C219        C  0.48567581  0.12824321  0.67986140     0.01100
C220        C  0.48035339  0.10355208  0.67617298     0.07100
C221        C  0.45850001  0.09559035  0.70068353    -0.06000
H222        H  0.50047685  0.14110464  0.66514053     0.07800
H223        H  0.44891232  0.07723615  0.70600994     0.09000
Cu224      Cu  0.46878106  0.16765221  0.72472558     0.44200
Cu225      Cu  0.42350440  0.11469547  0.75786725     0.42000
Cu226      Cu  0.43022014  0.17045367  0.79816941     0.43900
N227        N  0.46896806  0.19880846  0.74882862    -0.34700
N228        N  0.45632822  0.19983569  0.77567487    -0.28900
C229        C  0.46130010  0.22269086  0.78481112    -0.05000
C230        C  0.47722581  0.23666473  0.76253626     0.07200
C231        C  0.48164547  0.22096999  0.74009765     0.01000
H232        H  0.45252533  0.22879921  0.80583406     0.08700
H233        H  0.49306520  0.22532241  0.71890904     0.07700
N234        N  0.40517872  0.13798028  0.81436627    -0.36100
N235        N  0.40198893  0.11801371  0.79925185    -0.28300
C236        C  0.38613342  0.10002489  0.81567619    -0.03500
C237        C  0.37944620  0.10889712  0.84256810     0.05100
C238        C  0.39161797  0.13310011  0.84100667     0.03200
H239        H  0.38176014  0.08154875  0.80880146     0.08300
H240        H  0.39124472  0.14612964  0.85796757     0.07100
C241        C  0.33400379  0.04473644  0.93470077     0.80200
N242        N  0.37062112  0.03656227  0.95077623    -0.78100
C243        C  0.36348528  0.01949474  0.97092237     0.82700
N244        N  0.31847016  0.01098640  0.97519515    -0.78000
C245        C  0.28120330  0.01967355  0.95987938     0.82800
N246        N  0.28946063  0.03636417  0.93956389    -0.79700
C247        C  0.03596873  0.95443339  0.94073157     0.80200
N248        N  0.08170013  0.96176914  0.94473079    -0.78100
C249        C  0.09226601  0.97874655  0.96439102     0.82700
N250        N  0.05677252  0.98866611  0.97988112    -0.78000
C251        C  0.01102285  0.98114150  0.97663860     0.82800
N252        N  0.00105579  0.96413725  0.95696721    -0.79700
N253        N  0.92170938  0.88786723  0.71858909    -0.27300
N254        N  0.93490435  0.87027307  0.70149160    -0.35100
C255        C  0.92622491  0.87702550  0.67470836     0.01100
C256        C  0.90666182  0.89993960  0.67507055     0.07100
C257        C  0.90407366  0.90616347  0.70322402    -0.06000
H258        H  0.93310270  0.86594139  0.65640440     0.07800
H259        H  0.89123563  0.92298557  0.71190073     0.09000
Cu260      Cu  0.96319147  0.83772500  0.71530133     0.44200
Cu261      Cu  0.93103550  0.88750855  0.76179349     0.42000
Cu262      Cu  0.99119527  0.83607726  0.78983210     0.43900
N263        N  0.98492604  0.80678470  0.73640801    -0.34700
N264        N  0.99397208  0.80637372  0.76378321    -0.28900
C265        C  0.00173426  0.78354412  0.77196057    -0.05000
C266        C  0.99780399  0.76885240  0.74862345     0.07200
C267        C  0.98741943  0.78411171  0.72633713     0.01000
H268        H  0.00841791  0.77801063  0.79349887     0.08700
H269        H  0.97963397  0.77899612  0.70480005     0.07700
N270        N  0.97956964  0.86705965  0.81277878    -0.36100
N271        N  0.95553360  0.88566821  0.80280303    -0.28300
C272        C  0.95507407  0.90324899  0.82226918    -0.03500
C273        C  0.98020609  0.89526906  0.84559321     0.05100
C274        C  0.99548632  0.87230568  0.83879877     0.03200
H275        H  0.94001296  0.92097620  0.81901618     0.08300
H276        H  0.01747078  0.86052068  0.85151416     0.07100
C277        C  0.84740753  0.96275779  0.58393497     0.80200
N278        N  0.88247651  0.97377865  0.56905348    -0.78100
C279        C  0.87246619  0.99162520  0.55034352     0.82700
N280        N  0.82631560  0.99820980  0.54624102    -0.78000
C281        C  0.79069139  0.98663051  0.56011931     0.82800
N282        N  0.80138941  0.96888813  0.57882892    -0.79700
C283        C  0.53550333  0.04132042  0.58371026     0.80200
N284        N  0.50238652  0.03091083  0.56686919    -0.78100
C285        C  0.51493592  0.01459189  0.54691641     0.82700
N286        N  0.56173485  0.00885118  0.54387286    -0.78000
C287        C  0.59565654  0.01975420  0.55998588     0.82800
N288        N  0.58219793  0.03597361  0.57990884    -0.79700
C289        C  0.74118415  0.99519138  0.55763556    -0.00100
C290        C  0.73140438  0.01947334  0.56329530    -0.12000
C291        C  0.68448608  0.02800094  0.56377143     0.02100
C292        C  0.64621398  0.01208808  0.55798121    -0.00200
C293        C  0.65643509  0.98796025  0.55112818    -0.11900
C294        C  0.70336527  0.97939393  0.55119314     0.02000
H295        H  0.76049455  0.03168300  0.56817874     0.15000
H296        H  0.62761648  0.97553508  0.54648241     0.15000
C297        C  0.71193062  0.95443678  0.54415621     0.36600
C298        C  0.67702860  0.05320795  0.56998581     0.36500
N299        N  0.71879809  0.93445815  0.53841232    -0.43700
N300        N  0.67139445  0.07342169  0.57504194    -0.43700
C301        C  0.89103699  0.91482557  0.65089425    -0.00100
C302        C  0.84747619  0.92705605  0.65281195    -0.12000
C303        C  0.83169697  0.94217901  0.63107569     0.02100
C304        C  0.86018054  0.94549423  0.60673877    -0.00200
C305        C  0.90375209  0.93305849  0.60486438    -0.11900
C306        C  0.91928976  0.91783611  0.62658227     0.02000
H307        H  0.82569246  0.92486866  0.67152345     0.15000
H308        H  0.92621983  0.93546474  0.58648489     0.15000
C309        C  0.96558585  0.90671113  0.62407263     0.36600
C310        C  0.78721516  0.95476395  0.63514787     0.36500
N311        N  0.00277011  0.89787916  0.62208626    -0.43700
N312        N  0.75153274  0.96479549  0.63850468    -0.43700
C313        C  0.02277582  0.93826045  0.91687142    -0.00100
C314        C  0.97479680  0.93773883  0.90807797    -0.12000
C315        C  0.96012853  0.92373562  0.88517772     0.02100
C316        C  0.99355899  0.90952219  0.87064536    -0.00200
C317        C  0.04116761  0.90944420  0.87960388    -0.11900
C318        C  0.05621165  0.92377063  0.90224103     0.02000
H319        H  0.94836295  0.94860860  0.91881604     0.15000
H320        H  0.06706541  0.89859318  0.86835955     0.15000
C321        C  0.10613021  0.92307339  0.90958218     0.36600
C322        C  0.91029713  0.92383837  0.87752882     0.36500
N323        N  0.14630405  0.92244170  0.91506023    -0.43700
N324        N  0.87033965  0.92395985  0.87147769    -0.43700
C325        C  0.23240834  0.00988580  0.96362369    -0.00100
C326        C  0.22650350  0.98535796  0.97036399    -0.12000
C327        C  0.18102817  0.97489562  0.97116946     0.02100
C328        C  0.14053371  0.98913966  0.96564723    -0.00200
C329        C  0.14609330  0.01382912  0.96032366    -0.11900
C330        C  0.19141146  0.02427131  0.95907928     0.02000
H331        H  0.25750110  0.97414315  0.97414653     0.15000
H332        H  0.11489727  0.02488310  0.95636904     0.15000
C333        C  0.19450695  0.04982601  0.95332694     0.36600
C334        C  0.17662415  0.94965495  0.97820725     0.36500
N335        N  0.19690587  0.07028355  0.94862981    -0.43700
N336        N  0.17298497  0.92945143  0.98398665    -0.43700
C337        C  0.36538770  0.09444535  0.86742985    -0.00100
C338        C  0.32939310  0.07712577  0.86401545    -0.12000
C339        C  0.31780229  0.06112426  0.88575039     0.02100
C340        C  0.34292980  0.06214016  0.91160554    -0.00200
C341        C  0.37842971  0.07975139  0.91518861    -0.11900
C342        C  0.38962072  0.09594541  0.89348792     0.02000
H343        H  0.31073771  0.07581189  0.84401378     0.15000
H344        H  0.39783691  0.08074324  0.93495865     0.15000
C345        C  0.42789737  0.11290447  0.89805912     0.36600
C346        C  0.28183299  0.04307391  0.88020654     0.36500
N347        N  0.45860599  0.12647209  0.90182480    -0.43700
N348        N  0.25300797  0.02863478  0.87570606    -0.43700
C349        C  0.52055880  0.05731164  0.60700095    -0.00100
C350        C  0.54769294  0.07792652  0.61296271    -0.12000
C351        C  0.53526429  0.09343631  0.63505716     0.02100
C352        C  0.49463355  0.08841659  0.65173804    -0.00200
C353        C  0.46762780  0.06769267  0.64570311    -0.11900
C354        C  0.48024270  0.05214693  0.62375167     0.02000
H355        H  0.57889380  0.08191314  0.60032885     0.15000
H356        H  0.43653654  0.06345586  0.65831110     0.15000
C357        C  0.45271345  0.03033622  0.62005513     0.36600
C358        C  0.56642597  0.11356591  0.64075310     0.36500
N359        N  0.43081016  0.01279537  0.61730781    -0.43700
N360        N  0.59172419  0.12963516  0.64511511    -0.43700
C361        C  0.47791879  0.99403677  0.02515842    -0.00100
C362        C  0.48841122  0.00782580  0.00107704    -0.12000
C363        C  0.45244278  0.01617376  0.98302119     0.02100
C364        C  0.40398722  0.01059250  0.98866593    -0.00200
C365        C  0.39364872  0.99636931  0.01245966    -0.11900
C366        C  0.42955183  0.98827344  0.03068231     0.02000
H367        H  0.52512922  0.01232784  0.99628751     0.15000
H368        H  0.35698243  0.99191635  0.01741724     0.15000
C369        C  0.41470796  0.97501321  0.05541568     0.36600
C370        C  0.46717065  0.03046090  0.95907058     0.36500
N371        N  0.40251856  0.96448093  0.07522915    -0.43700
N372        N  0.47939253  0.04199043  0.94003804    -0.43700
C373        C  0.97204923  0.99335610  0.99227963    -0.00100
C374        C  0.97994336  0.01696434  0.00188187    -0.12000
C375        C  0.94508997  0.02953227  0.01681945     0.02100
C376        C  0.90077954  0.01846323  0.02276650    -0.00200
C377        C  0.89226055  0.99504249  0.01260752    -0.11900
C378        C  0.92731683  0.98240662  0.99761820     0.02000
H379        H  0.01352918  0.02588583  0.99748283     0.15000
H380        H  0.85863164  0.98622117  0.01715173     0.15000
C381        C  0.91683372  0.95794041  0.98915885     0.36600
C382        C  0.95582138  0.05400485  0.02513564     0.36500
N383        N  0.90829750  0.93833835  0.98243849    -0.43700
N384        N  0.96465303  0.07358642  0.03178351    -0.43700
C385        C  0.64203196  0.00603180  0.06087226    -0.00100
C386        C  0.66396818  0.00910872  0.03451023    -0.12000
C387        C  0.71030320  0.01847599  0.03242812     0.02100
C388        C  0.73516843  0.02544744  0.05708085    -0.00200
C389        C  0.71224086  0.02332313  0.08327151    -0.11900
C390        C  0.66643712  0.01360470  0.08540507     0.02000
H391        H  0.64545553  0.00346528  0.01553062     0.15000
H392        H  0.73065857  0.02868421  0.10239629     0.15000
C393        C  0.64531881  0.01202783  0.11310514     0.36600
C394        C  0.73110672  0.02091056  0.00474678     0.36500
N395        N  0.62892870  0.01091882  0.13544688    -0.43700
N396        N  0.74768865  0.02278496  0.98252057    -0.43700
C397        C  0.51244706  0.92012761  0.15513125    -0.00100
C398        C  0.50099774  0.91218882  0.12782203    -0.12000
C399        C  0.51172751  0.92630902  0.10415926     0.02100
C400        C  0.53493530  0.94869470  0.10764803    -0.00200
C401        C  0.54741723  0.95633954  0.13483611    -0.11900
C402        C  0.53630744  0.94241111  0.15850085     0.02000
H403        H  0.48298645  0.89504830  0.12496234     0.15000
H404        H  0.56521374  0.97351797  0.13767920     0.15000
C405        C  0.55127160  0.95121325  0.18576739     0.36600
C406        C  0.49982998  0.91709723  0.07655500     0.36500
N407        N  0.56331507  0.95842717  0.20754115    -0.43700
N408        N  0.49038270  0.90965389  0.05444626    -0.43700
C409        C  0.40049622  0.98051280  0.50013173    -0.00100
C410        C  0.44786025  0.97818843  0.49080269    -0.12000
C411        C  0.48579657  0.98893256  0.50539914     0.02100
C412        C  0.47687563  0.00231463  0.53025028    -0.00200
C413        C  0.42953628  0.00429383  0.53970299    -0.11900
C414        C  0.39172549  0.99360962  0.52516727     0.02000
H415        H  0.45543608  0.96840008  0.47153880     0.15000
H416        H  0.42159128  0.01426429  0.55875514     0.15000
C417        C  0.34459819  0.99626372  0.53698102     0.36600
C418        C  0.53293038  0.98647671  0.49359312     0.36500
N419        N  0.30695853  0.99852911  0.54654284    -0.43700
N420        N  0.57057934  0.98444790  0.48397101    -0.43700
C421        C  0.35155107  0.93151623  0.41952456    -0.00100
C422        C  0.38230047  0.91191417  0.42375160    -0.12000
C423        C  0.40030069  0.89883918  0.40090353     0.02100
C424        C  0.38784957  0.90558054  0.37308455    -0.00200
C425        C  0.35654408  0.92502904  0.36896510    -0.11900
C426        C  0.33835185  0.93797701  0.39179649     0.02000
H427        H  0.39291652  0.90704733  0.44502416     0.15000
H428        H  0.34655778  0.93035527  0.34775026     0.15000
C429        C  0.30875823  0.95871160  0.38598423     0.36600
C430        C  0.43333483  0.87952299  0.40675275     0.36500
N431        N  0.28520032  0.97536426  0.38127282    -0.43700
N432        N  0.45971194  0.86402935  0.41163339    -0.43700
C433        C  0.98386620  0.02058611  0.49739679    -0.00100
C434        C  0.99510575  0.01076828  0.52389530    -0.12000
C435        C  0.95960424  0.00220577  0.54198138     0.02100
C436        C  0.91124249  0.00284920  0.53343366    -0.00200
C437        C  0.89981829  0.01371879  0.50748330    -0.11900
C438        C  0.93534766  0.02264734  0.48957189     0.02000
H439        H  0.03201235  0.00977038  0.53062112     0.15000
H440        H  0.86297443  0.01464452  0.50065536     0.15000
C441        C  0.92064859  0.03283379  0.46289057     0.36600
C442        C  0.97422644  0.99343686  0.56936908     0.36500
N443        N  0.90870243  0.04107744  0.44158511    -0.43700
N444        N  0.98610078  0.98651140  0.59132024    -0.43700
C445        C  0.14824682  0.00895056  0.46503453    -0.00100
C446        C  0.14871302  0.98378743  0.46194719    -0.12000
C447        C  0.19172688  0.97097192  0.46251553     0.02100
C448        C  0.23505862  0.98345203  0.46670564    -0.00200
C449        C  0.23418566  0.00855815  0.47059753    -0.11900
C450        C  0.19136103  0.02135194  0.46958422     0.02000
H451        H  0.11546388  0.97419333  0.45867391     0.15000
H452        H  0.26721381  0.01832098  0.47396441     0.15000
C453        C  0.19243038  0.04710167  0.47407961     0.36600
C454        C  0.19021041  0.94505224  0.45965932     0.36500
N455        N  0.19336820  0.06772048  0.47781367    -0.43700
N456        N  0.18879546  0.92427390  0.45745672    -0.43700
C457        C  0.89440445  0.09826023  0.15006640    -0.00100
C458        C  0.91999454  0.07764292  0.14211567    -0.12000
C459        C  0.90543815  0.06349786  0.11929151     0.02100
C460        C  0.86412092  0.06983135  0.10390211    -0.00200
C461        C  0.83822702  0.09035458  0.11194089    -0.11900
C462        C  0.85312571  0.10465691  0.13469984     0.02000
H463        H  0.95159665  0.07249379  0.15385877     0.15000
H464        H  0.80628864  0.09525170  0.10037294     0.15000
C465        C  0.82413618  0.12503982  0.14260485     0.36600
C466        C  0.93235497  0.04194569  0.11309739     0.36500
N467        N  0.80074817  0.14133769  0.14892013    -0.43700
N468        N  0.95384539  0.02465090  0.10818232    -0.43700
C469        C  0.04482389  0.06659521  0.41598132    -0.00100
C470        C  0.06842258  0.06175143  0.39048295    -0.12000
C471        C  0.05900419  0.07529276  0.36621502     0.02100
C472        C  0.02555574  0.09421673  0.36719373    -0.00200
C473        C  0.00313119  0.09968149  0.39279470    -0.11900
C474        C  0.01229893  0.08605381  0.41709254     0.02000
H475        H  0.09377439  0.04703803  0.38929684     0.15000
H476        H  0.97783512  0.11444208  0.39370495     0.15000
C477        C  0.98884897  0.09293064  0.44294362     0.36600
C478        C  0.08541191  0.06997454  0.34085946     0.36500
N479        N  0.97008676  0.09852523  0.46364115    -0.43700
N480        N  0.10672714  0.06582722  0.32056764    -0.43700
C481        C  0.81941981  0.50098551  0.45709356    -0.00100
C482        C  0.81270367  0.52600018  0.45930550    -0.12000
C483        C  0.76674288  0.53588769  0.45929552     0.02100
C484        C  0.72668810  0.52056893  0.45751748    -0.00200
C485        C  0.73343317  0.49551850  0.45659325    -0.11900
C486        C  0.77924199  0.48565445  0.45616642     0.02000
H487        H  0.84339610  0.53787496  0.46020552     0.15000
H488        H  0.70277088  0.48361694  0.45563361     0.15000
C489        C  0.78403638  0.45971877  0.45529421     0.36600
C490        C  0.76150865  0.56169425  0.46184416     0.36500
N491        N  0.78792633  0.43894513  0.45463972    -0.43700
N492        N  0.75715573  0.58236646  0.46398944    -0.43700
C493        C  0.57044241  0.59974399  0.36802416    -0.00100
C494        C  0.55210856  0.60340104  0.39520346    -0.12000
C495        C  0.56823388  0.58953173  0.41809116     0.02100
C496        C  0.60395602  0.57191745  0.41398425    -0.00200
C497        C  0.62416121  0.56933734  0.38709684    -0.11900
C498        C  0.60761300  0.58292757  0.36420414     0.02000
H499        H  0.52404477  0.61655017  0.39838499     0.15000
H500        H  0.65196677  0.55608522  0.38370640     0.15000
C501        C  0.62994669  0.57954138  0.33708187     0.36600
C502        C  0.54800305  0.59390314  0.44559746     0.36500
N503        N  0.64783306  0.57689288  0.31533356    -0.43700
N504        N  0.53194850  0.59735643  0.46769239    -0.43700
C505        C  0.40469626  0.56217844  0.10599125    -0.00100
C506        C  0.38639018  0.55742441  0.13293258    -0.12000
C507        C  0.39955630  0.57150167  0.15616153     0.02100
C508        C  0.43130077  0.59108426  0.15261984    -0.00200
C509        C  0.44858977  0.59627933  0.12549391    -0.11900
C510        C  0.43592434  0.58192441  0.10229679     0.02000
H511        H  0.36221696  0.54236641  0.13596218     0.15000
H512        H  0.47267275  0.61136880  0.12248361     0.15000
C513        C  0.45423250  0.58828096  0.07482658     0.36600
C514        C  0.37856159  0.56585222  0.18314952     0.36500
N515        N  0.46875203  0.59338398  0.05277901    -0.43700
N516        N  0.36156816  0.56122102  0.20470930    -0.43700
C517        C  0.28466764  0.51214387  0.05777298    -0.00100
C518        C  0.27699278  0.48742206  0.05318481    -0.12000
C519        C  0.23077253  0.47798709  0.05141534     0.02100
C520        C  0.19108729  0.49347896  0.05358910    -0.00200
C521        C  0.19865190  0.51828508  0.05743371    -0.11900
C522        C  0.24488628  0.52767599  0.05982432     0.02000
H523        H  0.30722513  0.47534775  0.05142808     0.15000
H524        H  0.16831705  0.53030440  0.05909388     0.15000
C525        C  0.25047021  0.55337673  0.06355982     0.36600
C526        C  0.22498080  0.45243295  0.04661319     0.36500
N527        N  0.25503329  0.57396584  0.06656261    -0.43700
N528        N  0.22014338  0.43196783  0.04275375    -0.43700
C529        C  0.06762893  0.43938758  0.09085127    -0.00100
C530        C  0.10003540  0.42177777  0.10025359    -0.12000
C531        C  0.08841211  0.40621936  0.12254001     0.02100
C532        C  0.04419173  0.40866154  0.13625798    -0.00200
C533        C  0.01114543  0.42549401  0.12624214    -0.11900
C534        C  0.02195219  0.44053692  0.10350393     0.02000
H535        H  0.13483807  0.42042505  0.09047768     0.15000
H536        H  0.97689647  0.42718519  0.13664082     0.15000
C537        C  0.98599927  0.45764647  0.09480036     0.36600
C538        C  0.12331589  0.38883618  0.13186999     0.36500
N539        N  0.95690620  0.47119105  0.08782251    -0.43700
N540        N  0.15131612  0.37486593  0.13924370    -0.43700
C541        C  0.93181228  0.45089794  0.40460481    -0.00100
C542        C  0.96159209  0.43094713  0.40897132    -0.12000
C543        C  0.97283685  0.41530897  0.38680383     0.02100
C544        C  0.95441283  0.41974607  0.35951429    -0.00200
C545        C  0.92464004  0.43977137  0.35523694    -0.11900
C546        C  0.91305227  0.45523372  0.37743885     0.02000
H547        H  0.97604270  0.42753412  0.42982798     0.15000
H548        H  0.91018689  0.44336767  0.33442579     0.15000
C549        C  0.88351590  0.47595403  0.37144139     0.36600
C550        C  0.00491923  0.39557179  0.39256096     0.36500
N551        N  0.85989080  0.49256307  0.36663660    -0.43700
N552        N  0.03064254  0.37979552  0.39741925    -0.43700
C553        C  0.48603207  0.49410607  0.52261874    -0.00100
C554        C  0.53314563  0.48562947  0.52450138    -0.12000
C555        C  0.57008432  0.49598883  0.50881485     0.02100
C556        C  0.56048277  0.51542839  0.49014252    -0.00200
C557        C  0.51342697  0.52402977  0.48840919    -0.11900
C558        C  0.47656881  0.51382011  0.50433408     0.02000
H559        H  0.54158606  0.47068347  0.53840788     0.15000
H560        H  0.50503409  0.53902453  0.47456430     0.15000
C561        C  0.42991436  0.52453936  0.50149800     0.36600
C562        C  0.61717607  0.48603260  0.51280421     0.36500
N563        N  0.39274875  0.53334206  0.49909751    -0.43700
N564        N  0.65475033  0.47795108  0.51625282    -0.43700
C565        C  0.06300965  0.51793925  0.52033433    -0.00100
C566        C  0.07118548  0.49803085  0.50263327    -0.12000
C567        C  0.03539673  0.48873766  0.48510936     0.02100
C568        C  0.98954539  0.49951288  0.48471754    -0.00200
C569        C  0.98154113  0.51956964  0.50217909    -0.11900
C570        C  0.01727737  0.52882805  0.51974021     0.02000
H571        H  0.10569793  0.48925771  0.50269340     0.15000
H572        H  0.94701300  0.52832804  0.50212010     0.15000
C573        C  0.00521809  0.54967163  0.53650900     0.36600
C574        C  0.04729249  0.46781213  0.46841896     0.36500
N575        N  0.99483656  0.56633553  0.54982461    -0.43700
N576        N  0.05735039  0.45106586  0.45515136    -0.43700
C577        C  0.22863272  0.51026898  0.55475906    -0.00100
C578        C  0.24993971  0.50305673  0.58018105    -0.12000
C579        C  0.29480119  0.49216927  0.58064309     0.02100
C580        C  0.31968594  0.48835089  0.55515067    -0.00200
C581        C  0.29847626  0.49560960  0.52962578    -0.11900
C582        C  0.25322730  0.50635955  0.52920482     0.02000
H583        H  0.23143420  0.50595208  0.59990029     0.15000
H584        H  0.31743484  0.49299731  0.50995250     0.15000
C585        C  0.23393942  0.51421401  0.50247698     0.36600
C586        C  0.31524089  0.48628698  0.60777561     0.36500
N587        N  0.21847545  0.52056486  0.48107911    -0.43700
N588        N  0.33170467  0.48158472  0.62949035    -0.43700
C589        C  0.11631581  0.56390043  0.60356906    -0.00100
C590        C  0.08662479  0.58377406  0.59832447    -0.12000
C591        C  0.07276150  0.59925472  0.62011613     0.02100
C592        C  0.08920767  0.59511763  0.64789034    -0.00200
C593        C  0.11927024  0.57536077  0.65306914    -0.11900
C594        C  0.13273204  0.55974776  0.63133113    -0.03600
H595        H  0.07369532  0.58707870  0.57710857     0.15000
H596        H  0.13176310  0.57184925  0.67434020     0.15000
C597        C  0.16070961  0.53880082  0.63862335     0.36600
C598        C  0.03920479  0.61817347  0.61356031     0.36500
N599        N  0.18276545  0.52198224  0.64482909    -0.43700
N600        N  0.01211789  0.63324662  0.60825906    -0.43700
C601        C  0.52885419  0.49302057  0.99285643    -0.00100
C602        C  0.48120791  0.48976523  0.98449293    -0.12000
C603        C  0.44337640  0.49860779  0.00072209     0.02100
C604        C  0.45268970  0.51070332  0.02646551    -0.00200
C605        C  0.50040437  0.51372115  0.03490489    -0.11900
C606        C  0.53819170  0.50520038  0.01847766     0.02000
H607        H  0.47333880  0.48082204  0.96468683     0.15000
H608        H  0.50852111  0.52274885  0.05461647     0.15000
C609        C  0.58596293  0.50893207  0.02896803     0.36600
C610        C  0.39578764  0.49582767  0.98955491     0.36500
N611        N  0.62403615  0.51214223  0.03758863    -0.43700
N612        N  0.35776834  0.49362960  0.98042017    -0.43700
C613        C  0.02491033  0.49836073  0.01806059    -0.00100
C614        C  0.98134238  0.48602736  0.01467898    -0.12000
C615        C  0.94367737  0.49584352  0.99913739     0.02100
C616        C  0.94880316  0.51874650  0.98636613    -0.00200
C617        C  0.99224747  0.53112016  0.98966645    -0.11900
C618        C  0.03004651  0.52126777  0.00517522     0.02000
H619        H  0.97650435  0.46831897  0.02397750     0.15000
H620        H  0.99686353  0.54874185  0.98008305     0.15000
C621        C  0.07310802  0.53540284  0.00746563     0.36600
C622        C  0.90115253  0.48138558  0.99595899     0.36500
N623        N  0.10748712  0.54686458  0.00907432    -0.43700
N624        N  0.86721902  0.46969653  0.99347679    -0.43700
C625        C  0.90718864  0.57006123  0.90625349    -0.00100
C626        C  0.95171065  0.56479516  0.89433577    -0.12000
C627        C  0.96924272  0.57802764  0.87157012     0.02100
C628        C  0.94215158  0.59718686  0.86028277    -0.00200
C629        C  0.89811807  0.60294154  0.87258782    -0.11900
C630        C  0.88028124  0.58945156  0.89529229     0.02000
H631        H  0.97288820  0.55004555  0.90266344     0.15000
H632        H  0.87726909  0.61775945  0.86415764     0.15000
C633        C  0.83515441  0.59632807  0.90742541     0.36600
C634        C  0.01590549  0.57198475  0.86092211     0.36500
N635        N  0.79900778  0.60184164  0.91718194    -0.43700
N636        N  0.05329009  0.56706502  0.85244866    -0.43700
C637        C  0.78206759  0.52249551  0.95343642    -0.00100
C638        C  0.75838780  0.51797697  0.92785108    -0.12000
C639        C  0.71315393  0.50729695  0.92745044     0.02100
C640        C  0.69033623  0.50137074  0.95308166    -0.00200
C641        C  0.71326240  0.50664896  0.97864179    -0.11900
C642        C  0.75885222  0.51688689  0.97905249     0.02000
H643        H  0.77577940  0.52220462  0.90803974     0.15000
H644        H  0.69605925  0.50212710  0.99840371     0.15000
C645        C  0.78060202  0.52169247  0.00609032     0.36600
C646        C  0.69072011  0.50298430  0.90047438     0.36500
N647        N  0.79802847  0.52546958  0.02777921    -0.43700
N648        N  0.67275892  0.49949071  0.87886874    -0.43700
C649        C  0.58119978  0.43958900  0.91565595    -0.00100
C650        C  0.53319416  0.43352417  0.91056892    -0.12000
C651        C  0.52049099  0.41796786  0.88854204     0.02100
C652        C  0.55599336  0.40837640  0.87092978    -0.00200
C653        C  0.60390193  0.41328591  0.87666410    -0.11900
C654        C  0.61691360  0.42834365  0.89907903     0.02000
H655        H  0.50519727  0.44149445  0.92321438     0.15000
H656        H  0.63126098  0.40541086  0.86342486     0.15000
C657        C  0.66716086  0.43135498  0.90470518     0.36600
C658        C  0.47073351  0.41270090  0.88384959     0.36500
N659        N  0.70745705  0.43357375  0.90923623    -0.43700
N660        N  0.43083782  0.40843534  0.88019656    -0.43700
C661        C  0.44302031  0.43816914  0.59960883    -0.00100
C662        C  0.48540934  0.44315506  0.61425465    -0.12000
C663        C  0.49941357  0.42922521  0.63749959     0.02100
C664        C  0.47095652  0.40960800  0.64644792    -0.00200
C665        C  0.42951596  0.40402419  0.63112192    -0.11900
C666        C  0.41524050  0.41813887  0.60802386     0.02000
H667        H  0.50729259  0.45835081  0.60790732     0.15000
H668        H  0.40757278  0.38889306  0.63758265     0.15000
C669        C  0.37256509  0.41131736  0.59295299     0.36600
C670        C  0.54384422  0.43515332  0.65123186     0.36500
N671        N  0.33842857  0.40586174  0.58080487    -0.43700
N672        N  0.57948919  0.43996972  0.66216782    -0.43700
loop_ 
_geom_bond_atom_site_label_1 
_geom_bond_atom_site_label_2 
_geom_bond_distance 
_geom_bond_site_symmetry_2 
_ccdc_geom_bond_type 
N1            N2   1.321       .  A
N1            C5   1.344       .  A
N1           Cu9   2.071       .  S
N2            C3   1.347       .  A
N2           Cu8   2.081       .  S
C3            C4   1.388       .  A
C3            H6   1.082       .  S
C4            C5   1.385       .  A
C4          C664   1.487       .  S
C5            H7   1.082       .  S
Cu8          N11   2.081       .  S
Cu9          N19   2.072       .  S
Cu10         N12   2.076       .  S
Cu10         N18   2.075       .  S
N11          N12   1.324       .  A
N11          C15   1.345       .  A
N12          C13   1.346       .  A
C13          C14   1.382       .  A
C13          H16   1.082       .  S
C14          C15   1.382       .  A
C14         C230   1.470       .  S
C15          H17   1.082       .  S
N18          N19   1.323       .  A
N18          C22   1.347       .  A
N19          C20   1.344       .  A
C20          C21   1.380       .  A
C20          H23   1.082       .  S
C21          C22   1.381       .  A
C21         C652   1.471       .  S
C22          H24   1.082       .  S
C25          N26   1.356       .  A
C25          N30   1.359       .  A
C25         C625   1.478       .  S
N26          C27   1.354       .  A
C27          N28   1.358       .  A
C27         C616   1.488       .  S
N28          C29   1.359       .  A
C29          N30   1.360       .  A
C29         C637   1.482       .  S
C31          N32   1.360       .  A
C31          N36   1.357       .  A
C31         C649   1.491       .  S
N32          C33   1.361       .  A
C33          N34   1.359       .  A
C33         C601   1.489       .  S
N34          C35   1.357       .  A
C35          N36   1.355       .  A
C35         C640   1.479       .  S
N37          N38   1.321       .  A
N37          C41   1.342       .  A
N37         Cu45   2.061       .  S
N38          C39   1.345       .  A
N38         Cu44   2.074       .  S
C39          C40   1.387       .  A
C39          H42   1.081       .  S
C40          C41   1.383       .  A
C40         C592   1.483       .  S
C41          H43   1.082       .  S
Cu44         N47   2.074       .  S
Cu45         N55   2.061   1_455  S
Cu46         N48   2.069       .  S
Cu46         N54   2.068       .  S
N47          N48   1.323   1_455  A
N47          C51   1.346       .  A
N48          C49   1.342       .  A
C49          C50   1.380       .  A
C49          H52   1.082       .  S
C50          C51   1.382   1_655  A
C50         C266   1.466       .  S
C51          H53   1.082       .  S
N54          N55   1.320       .  A
N54          C58   1.346       .  A
N55          C56   1.341       .  A
C56          C57   1.382       .  A
C56          H59   1.082       .  S
C57          C58   1.385       .  A
C57         C628   1.478       .  S
C58          H60   1.082       .  S
C61          N62   1.356       .  A
C61          N66   1.357       .  A
C61         C589   1.480       .  S
N62          C63   1.358       .  A
C63          N64   1.359       .  A
C63         C577   1.482       .  S
N64          C65   1.362       .  A
C65          N66   1.358       .  A
C65         C565   1.496       .  S
C67          N68   1.357       .  A
C67          N72   1.359       .  A
C67         C661   1.485       .  S
N68          C69   1.358       .  A
C69          N70   1.357       .  A
C69         C580   1.482       .  S
N70          C71   1.358       .  A
C71          N72   1.362       .  A
C71         C553   1.496       .  S
N73          N74   1.321       .  A
N73          C77   1.342       .  A
N73         Cu81   2.065       .  S
N74          C75   1.345       .  A
N74         Cu80   2.071       .  S
C75          C76   1.386       .  A
C75          H78   1.081       .  S
C76          C77   1.384       .  A
C76         C544   1.481       .  S
C77          H79   1.082       .  S
Cu80         N83   2.072       .  S
Cu81         N91   2.064   1_655  S
Cu82         N84   2.069   1_455  S
Cu82         N90   2.068       .  S
N83          N84   1.323       .  A
N83          C87   1.345       .  A
N84          C85   1.343       .  A
C85          C86   1.380       .  A
C85          H88   1.082       .  S
C86          C87   1.382       .  A
C86         C158   1.466       .  S
C87          H89   1.082       .  S
N90          N91   1.321       .  A
N90          C94   1.347       .  A
N91          C92   1.341       .  A
C92          C93   1.380       .  A
C92          H95   1.082       .  S
C93          C94   1.383       .  A
C93         C532   1.472       .  S
C94          H96   1.082       .  S
C97          N98   1.357       .  A
C97         N102   1.358       .  A
C97         C505   1.481       .  S
N98          C99   1.360       .  A
C99         N100   1.360       .  A
C99         C604   1.493       .  S
N100        C101   1.359       .  A
C101        N102   1.358       .  A
C101        C517   1.483       .  S
C103        N104   1.358       .  A
C103        N108   1.353       .  A
C103        C529   1.483       .  S
N104        C105   1.359       .  A
C105        N106   1.361       .  A
C105        C520   1.479       .  S
N106        C107   1.361       .  A
C107        N108   1.356       .  A
C107        C613   1.493       .  S
N109        N110   1.322       .  A
N109        C113   1.343       .  A
N109       Cu117   2.071       .  S
N110        C111   1.348       .  A
N110       Cu116   2.082       .  S
C111        C112   1.387       .  A
C111        H114   1.082       .  S
C112        C113   1.384       .  A
C112        C508   1.484       .  S
C113        H115   1.082       .  S
Cu116       N119   2.083       .  S
Cu117       N127   2.071       .  S
Cu118       N120   2.072       .  S
Cu118       N126   2.072       .  S
N119        N120   1.325       .  A
N119        C123   1.347       .  A
N120        C121   1.342       .  A
C121        C122   1.379       .  A
C121        H124   1.082       .  S
C122        C123   1.383       .  A
C122        C194   1.467       .  S
C123        H125   1.082       .  S
N126        N127   1.321       .  A
N126        C130   1.348       .  A
N127        C128   1.342       .  A
C128        C129   1.383       .  A
C128        H131   1.082       .  S
C129        C130   1.385       .  A
C129        C493   1.481       .  S
C130        H132   1.082       .  S
C133        N134   1.356       .  A
C133        N138   1.353       .  A
C133        C541   1.474       .  S
N134        C135   1.358       .  A
C135        N136   1.364       .  A
C135        C568   1.496       .  S
N136        C137   1.360       .  A
C137        N138   1.355       .  A
C137        C481   1.476       .  S
C139        N140   1.360       .  A
C139        N144   1.359       .  A
C139        C496   1.483       .  S
N140        C141   1.358       .  A
C141        N142   1.355       .  A
C141        C484   1.476       .  S
N142        C143   1.356       .  A
C143        N144   1.361       .  A
C143        C556   1.496       .  S
N145        N146   1.322       .  A
N145        C149   1.343   1_655  A
N145       Cu153   2.066       .  S
N146        C147   1.345   1_655  A
N146       Cu152   2.070       .  S
C147        C148   1.382       .  A
C147        H150   1.082       .  S
C148        C149   1.382       .  A
C148        C472   1.475       .  S
C149        H151   1.082   1_455  S
Cu152       N155   2.070       .  S
Cu153       N163   2.066       .  S
Cu154       N156   2.072       .  S
Cu154       N162   2.072       .  S
N155        N156   1.323       .  A
N155        C159   1.346       .  A
N156        C157   1.343       .  A
C157        C158   1.380       .  A
C157        H160   1.082       .  S
C158        C159   1.382       .  A
C159        H161   1.082   1_655  S
N162        N163   1.321       .  A
N162        C166   1.347       .  A
N163        C164   1.342       .  A
C164        C165   1.383       .  A
C164        H167   1.082       .  S
C165        C166   1.386       .  A
C165        C457   1.481       .  S
C166        H168   1.082       .  S
C169        N170   1.358       .  A
C169        N174   1.358       .  A
C169        C469   1.482       .  S
N170        C171   1.356       .  A
C171        N172   1.356       .  A
C171        C445   1.471       .  S
N172        C173   1.359       .  A
C173        N174   1.358       .  A
C173        C433   1.486   1_455  S
C175        N176   1.357       .  A
C175        N180   1.358       .  A
C175        C421   1.474       .  S
N176        C177   1.357       .  A
C177        N178   1.357       .  A
C177        C409   1.489       .  S
N178        C179   1.357       .  A
C179        N180   1.357       .  A
C179        C448   1.477       .  S
N181        N182   1.321       .  A
N181        C185   1.342       .  A
N181       Cu189   2.060       .  S
N182        C183   1.345       .  A
N182       Cu188   2.074       .  S
C183        C184   1.385       .  A
C183        H186   1.082       .  S
C184        C185   1.383       .  A
C184        C397   1.480       .  S
C185        H187   1.081       .  S
Cu188       N191   2.074       .  S
Cu189       N199   2.060       .  S
Cu190       N192   2.066       .  S
Cu190       N198   2.065       .  S
N191        N192   1.323       .  A
N191        C195   1.346       .  A
N192        C193   1.342       .  A
C193        C194   1.380       .  A
C193        H196   1.082       .  S
C194        C195   1.383       .  A
C195        H197   1.082       .  S
N198        N199   1.320       .  A
N198        C202   1.344       .  A
N199        C200   1.341       .  A
C200        C201   1.384       .  A
C200        H203   1.082       .  S
C201        C202   1.386       .  A
C201        C424   1.481       .  S
C202        H204   1.081       .  S
C205        N206   1.353       .  A
C205        N210   1.356       .  A
C205        C460   1.480       .  S
N206        C207   1.356       .  A
C207        N208   1.361       .  A
C207        C376   1.486       .  S
N208        C209   1.362       .  A
C209        N210   1.361       .  A
C209        C388   1.485       .  S
C211        N212   1.355       .  A
C211        N216   1.355       .  A
C211        C400   1.475       .  S
N212        C213   1.357       .  A
C213        N214   1.361       .  A
C213        C385   1.481   1_565  S
N214        C215   1.363       .  A
C215        N216   1.357       .  A
C215        C361   1.494       .  S
N217        N218   1.319       .  A
N217        C221   1.343       .  A
N217       Cu225   2.063       .  S
N218        C219   1.344       .  A
N218       Cu224   2.071       .  S
C219        C220   1.388       .  A
C219        H222   1.080       .  S
C220        C221   1.387       .  A
C220        C352   1.487       .  S
C221        H223   1.082       .  S
Cu224       N227   2.072       .  S
Cu225       N235   2.063       .  S
Cu226       N228   2.079       .  S
Cu226       N234   2.079       .  S
N227        N228   1.323       .  A
N227        C231   1.344       .  A
N228        C229   1.347       .  A
C229        C230   1.384       .  A
C229        H232   1.082       .  S
C230        C231   1.381       .  A
C231        H233   1.082       .  S
N234        N235   1.322       .  A
N234        C238   1.347       .  A
N235        C236   1.341       .  A
C236        C237   1.380       .  A
C236        H239   1.082       .  S
C237        C238   1.386       .  A
C237        C337   1.478       .  S
C238        H240   1.082       .  S
C241        N242   1.357       .  A
C241        N246   1.353       .  A
C241        C340   1.480       .  S
N242        C243   1.359       .  A
C243        N244   1.364       .  A
C243        C364   1.497       .  S
N244        C245   1.361       .  A
C245        N246   1.355       .  A
C245        C325   1.484       .  S
C247        N248   1.359       .  A
C247        N252   1.359       .  A
C247        C313   1.490       .  S
N248        C249   1.358       .  A
C249        N250   1.356       .  A
C249        C328   1.473       .  S
N250        C251   1.358       .  A
C251        N252   1.356       .  A
C251        C373   1.487   1_455  S
N253        N254   1.323       .  A
N253        C257   1.343       .  A
N253       Cu261   2.065       .  S
N254        C255   1.345       .  A
N254       Cu260   2.077       .  S
C255        C256   1.384       .  A
C255        H258   1.082       .  S
C256        C257   1.381       .  A
C256        C301   1.478       .  S
C257        H259   1.082       .  S
Cu260       N263   2.076       .  S
Cu261       N271   2.064       .  S
Cu262       N264   2.061       .  S
Cu262       N270   2.061       .  S
N263        N264   1.322       .  A
N263        C267   1.347       .  A
N264        C265   1.341   1_655  A
C265        C266   1.379   1_455  A
C265        H268   1.082       .  S
C266        C267   1.384       .  A
C267        H269   1.082       .  S
N270        N271   1.320       .  A
N270        C274   1.343       .  A
N271        C272   1.343       .  A
C272        C273   1.383       .  A
C272        H275   1.081       .  S
C273        C274   1.382       .  A
C273        C316   1.475       .  S
C274        H276   1.081   1_655  S
C277        N278   1.357       .  A
C277        N282   1.357       .  A
C277        C304   1.487       .  S
N278        C279   1.357       .  A
C279        N280   1.360       .  A
C279        C436   1.488   1_565  S
N280        C281   1.358       .  A
C281        N282   1.357       .  A
C281        C289   1.473       .  S
C283        N284   1.354       .  A
C283        N288   1.357       .  A
C283        C349   1.479       .  S
N284        C285   1.357       .  A
C285        N286   1.360       .  A
C285        C412   1.492       .  S
N286        C287   1.361       .  A
C287        N288   1.359       .  A
C287        C292   1.485       .  S
C289        C290   1.400   1_565  A
C289        C294   1.409       .  A
C290        C291   1.400       .  A
C290        H295   1.085       .  S
C291        C292   1.416       .  A
C291        C298   1.444       .  S
C292        C293   1.407   1_545  A
C293        C294   1.401       .  A
C293        H296   1.085       .  S
C294        C297   1.444       .  S
C297        N299   1.157       .  T
C298        N300   1.157       .  T
C301        C302   1.402       .  A
C301        C306   1.410       .  A
C302        C303   1.399       .  A
C302        H307   1.085       .  S
C303        C304   1.417       .  A
C303        C310   1.444       .  S
C304        C305   1.408       .  A
C305        C306   1.400       .  A
C305        H308   1.085       .  S
C306        C309   1.444       .  S
C309        N311   1.157   1_655  T
C310        N312   1.157       .  T
C313        C314   1.409   1_455  A
C313        C318   1.419       .  A
C314        C315   1.397       .  A
C314        H319   1.084       .  S
C315        C316   1.408       .  A
C315        C322   1.444       .  S
C316        C317   1.402   1_655  A
C317        C318   1.400       .  A
C317        H320   1.085       .  S
C318        C321   1.444       .  S
C321        N323   1.157       .  T
C322        N324   1.157       .  T
C325        C326   1.406   1_545  A
C325        C330   1.417       .  A
C326        C327   1.402       .  A
C326        H331   1.084       .  S
C327        C328   1.409       .  A
C327        C334   1.443       .  S
C328        C329   1.400   1_565  A
C329        C330   1.399       .  A
C329        H332   1.085       .  S
C330        C333   1.445       .  S
C333        N335   1.157       .  T
C334        N336   1.157       .  T
C337        C338   1.403       .  A
C337        C342   1.412       .  A
C338        C339   1.398       .  A
C338        H343   1.085       .  S
C339        C340   1.414       .  A
C339        C346   1.445       .  S
C340        C341   1.405       .  A
C341        C342   1.401       .  A
C341        H344   1.085       .  S
C342        C345   1.443       .  S
C345        N347   1.157       .  T
C346        N348   1.157       .  T
C349        C350   1.402       .  A
C349        C354   1.413       .  A
C350        C351   1.401       .  A
C350        H355   1.084       .  S
C351        C352   1.416       .  A
C351        C358   1.443       .  S
C352        C353   1.405       .  A
C353        C354   1.398       .  A
C353        H356   1.084       .  S
C354        C357   1.445       .  S
C357        N359   1.157       .  T
C358        N360   1.157       .  T
C361        C362   1.405   1_565  A
C361        C366   1.419       .  A
C362        C363   1.401   1_554  A
C362        H367   1.085   1_554  S
C363        C364   1.421       .  A
C363        C370   1.445       .  S
C364        C365   1.406   1_546  A
C365        C366   1.400       .  A
C365        H368   1.084       .  S
C366        C369   1.445       .  S
C369        N371   1.158       .  T
C370        N372   1.158       .  T
C373        C374   1.404   1_566  A
C373        C378   1.417       .  A
C374        C375   1.396       .  A
C374        H379   1.085   1_654  S
C375        C376   1.415       .  A
C375        C382   1.445       .  S
C376        C377   1.406   1_545  A
C377        C378   1.403   1_554  A
C377        H380   1.085       .  S
C378        C381   1.445       .  S
C381        N383   1.158       .  T
C382        N384   1.157       .  T
C385        C386   1.404       .  A
C385        C390   1.413       .  A
C386        C387   1.404       .  A
C386        H391   1.085       .  S
C387        C388   1.414       .  A
C387        C394   1.444       .  S
C388        C389   1.404       .  A
C389        C390   1.397       .  A
C389        H392   1.085       .  S
C390        C393   1.444       .  S
C393        N395   1.157       .  T
C394        N396   1.157   1_554  T
C397        C398   1.405       .  A
C397        C402   1.414       .  A
C398        C399   1.400       .  A
C398        H403   1.085       .  S
C399        C400   1.411       .  A
C399        C406   1.444       .  S
C400        C401   1.401       .  A
C401        C402   1.397       .  A
C401        H404   1.083       .  S
C402        C405   1.444       .  S
C405        N407   1.157       .  T
C406        N408   1.157       .  T
C409        C410   1.408       .  A
C409        C414   1.414       .  A
C410        C411   1.402       .  A
C410        H415   1.084       .  S
C411        C412   1.416   1_565  A
C411        C418   1.444       .  S
C412        C413   1.408       .  A
C413        C414   1.396   1_545  A
C413        H416   1.083       .  S
C414        C417   1.445       .  S
C417        N419   1.157       .  T
C418        N420   1.157       .  T
C421        C422   1.402       .  A
C421        C426   1.411       .  A
C422        C423   1.400       .  A
C422        H427   1.085       .  S
C423        C424   1.414       .  A
C423        C430   1.443       .  S
C424        C425   1.405       .  A
C425        C426   1.397       .  A
C425        H428   1.084       .  S
C426        C429   1.445       .  S
C429        N431   1.157       .  T
C430        N432   1.157       .  T
C433        C434   1.404       .  A
C433        C438   1.416       .  A
C434        C435   1.398       .  A
C434        H439   1.085   1_655  S
C435        C436   1.417       .  A
C435        C442   1.445   1_545  S
C436        C437   1.406       .  A
C437        C438   1.401       .  A
C437        H440   1.084       .  S
C438        C441   1.444       .  S
C441        N443   1.157       .  T
C442        N444   1.157       .  T
C445        C446   1.403   1_545  A
C445        C450   1.408       .  A
C446        C447   1.402       .  A
C446        H451   1.085       .  S
C447        C448   1.413       .  A
C447        C454   1.444       .  S
C448        C449   1.404   1_565  A
C449        C450   1.397       .  A
C449        H452   1.085       .  S
C450        C453   1.444       .  S
C453        N455   1.157       .  T
C454        N456   1.157       .  T
C457        C458   1.403       .  A
C457        C462   1.413       .  A
C458        C459   1.397       .  A
C458        H463   1.085       .  S
C459        C460   1.414       .  A
C459        C466   1.445       .  S
C460        C461   1.404       .  A
C461        C462   1.403       .  A
C461        H464   1.085       .  S
C462        C465   1.443       .  S
C465        N467   1.157       .  T
C466        N468   1.157       .  T
C469        C470   1.406       .  A
C469        C474   1.415       .  A
C470        C471   1.398       .  A
C470        H475   1.085       .  S
C471        C472   1.409       .  A
C471        C478   1.444       .  S
C472        C473   1.402       .  A
C473        C474   1.400       .  A
C473        H476   1.085   1_455  S
C474        C477   1.444   1_455  S
C477        N479   1.157       .  T
C478        N480   1.157       .  T
C481        C482   1.404       .  A
C481        C486   1.412       .  A
C482        C483   1.402       .  A
C482        H487   1.085       .  S
C483        C484   1.411       .  A
C483        C490   1.444       .  S
C484        C485   1.402       .  A
C485        C486   1.398       .  A
C485        H488   1.085       .  S
C486        C489   1.445       .  S
C489        N491   1.157       .  T
C490        N492   1.157       .  T
C493        C494   1.403       .  A
C493        C498   1.412       .  A
C494        C495   1.404       .  A
C494        H499   1.085       .  S
C495        C496   1.414       .  A
C495        C502   1.444       .  S
C496        C497   1.404       .  A
C497        C498   1.399       .  A
C497        H500   1.085       .  S
C498        C501   1.444       .  S
C501        N503   1.157       .  T
C502        N504   1.157       .  T
C505        C506   1.402       .  A
C505        C510   1.413       .  A
C506        C507   1.400       .  A
C506        H511   1.085       .  S
C507        C508   1.414       .  A
C507        C514   1.444       .  S
C508        C509   1.405       .  A
C509        C510   1.403       .  A
C509        H512   1.085       .  S
C510        C513   1.444       .  S
C513        N515   1.157       .  T
C514        N516   1.157       .  T
C517        C518   1.404       .  A
C517        C522   1.414       .  A
C518        C519   1.401       .  A
C518        H523   1.085       .  S
C519        C520   1.411       .  A
C519        C526   1.444       .  S
C520        C521   1.403       .  A
C521        C522   1.402       .  A
C521        H524   1.085       .  S
C522        C525   1.444       .  S
C525        N527   1.157       .  T
C526        N528   1.157       .  T
C529        C530   1.407       .  A
C529        C534   1.418       .  A
C530        C531   1.402       .  A
C530        H535   1.085       .  S
C531        C532   1.409       .  A
C531        C538   1.443       .  S
C532        C533   1.398       .  A
C533        C534   1.396       .  A
C533        H536   1.085   1_455  S
C534        C537   1.445   1_455  S
C537        N539   1.157       .  T
C538        N540   1.157       .  T
C541        C542   1.402       .  A
C541        C546   1.411       .  A
C542        C543   1.400       .  A
C542        H547   1.085       .  S
C543        C544   1.414       .  A
C543        C550   1.443   1_655  S
C544        C545   1.404       .  A
C545        C546   1.397       .  A
C545        H548   1.085       .  S
C546        C549   1.445       .  S
C549        N551   1.157       .  T
C550        N552   1.157       .  T
C553        C554   1.407       .  A
C553        C558   1.419       .  A
C554        C555   1.400       .  A
C554        H559   1.084       .  S
C555        C556   1.420       .  A
C555        C562   1.445       .  S
C556        C557   1.407       .  A
C557        C558   1.401       .  A
C557        H560   1.084       .  S
C558        C561   1.445       .  S
C561        N563   1.158       .  T
C562        N564   1.158       .  T
C565        C566   1.407       .  A
C565        C570   1.419       .  A
C566        C567   1.401       .  A
C566        H571   1.084       .  S
C567        C568   1.420   1_455  A
C567        C574   1.445       .  S
C568        C569   1.406       .  A
C569        C570   1.400   1_655  A
C569        H572   1.084       .  S
C570        C573   1.444       .  S
C573        N575   1.157   1_455  T
C574        N576   1.157       .  T
C577        C578   1.403       .  A
C577        C582   1.413       .  A
C578        C579   1.397       .  A
C578        H583   1.083       .  S
C579        C580   1.413       .  A
C579        C586   1.445       .  S
C580        C581   1.406       .  A
C581        C582   1.404       .  A
C581        H584   1.085       .  S
C582        C585   1.444       .  S
C585        N587   1.157       .  T
C586        N588   1.157       .  T
C589        C590   1.404       .  A
C589        C594   1.413       .  A
C590        C591   1.400       .  A
C590        H595   1.084       .  S
C591        C592   1.413       .  A
C591        C598   1.444       .  S
C592        C593   1.404       .  A
C593        C594   1.399       .  A
C593        H596   1.085       .  S
C594        C597   1.444       .  S
C597        N599   1.157       .  T
C598        N600   1.157       .  T
C601        C602   1.406       .  A
C601        C606   1.415   1_556  A
C602        C603   1.402   1_556  A
C602        H607   1.085       .  S
C603        C604   1.417       .  A
C603        C610   1.444   1_554  S
C604        C605   1.407       .  A
C605        C606   1.400       .  A
C605        H608   1.084       .  S
C606        C609   1.444       .  S
C609        N611   1.157       .  T
C610        N612   1.157       .  T
C613        C614   1.410   1_455  A
C613        C618   1.416       .  A
C614        C615   1.398   1_554  A
C614        H619   1.084       .  S
C615        C616   1.413       .  A
C615        C622   1.445       .  S
C616        C617   1.407       .  A
C617        C618   1.401   1_656  A
C617        H620   1.085       .  S
C618        C621   1.444       .  S
C621        N623   1.157       .  T
C622        N624   1.158       .  T
C625        C626   1.404       .  A
C625        C630   1.412       .  A
C626        C627   1.395       .  A
C626        H631   1.085       .  S
C627        C628   1.411       .  A
C627        C634   1.444   1_655  S
C628        C629   1.405       .  A
C629        C630   1.403       .  A
C629        H632   1.085       .  S
C630        C633   1.444       .  S
C633        N635   1.157       .  T
C634        N636   1.157       .  T
C637        C638   1.405       .  A
C637        C642   1.414       .  A
C638        C639   1.401       .  A
C638        H643   1.085       .  S
C639        C640   1.413       .  A
C639        C646   1.445       .  S
C640        C641   1.402       .  A
C641        C642   1.400       .  A
C641        H644   1.084       .  S
C642        C645   1.444   1_556  S
C645        N647   1.157       .  T
C646        N648   1.157       .  T
C649        C650   1.409       .  A
C649        C654   1.420       .  A
C650        C651   1.401       .  A
C650        H655   1.084       .  S
C651        C652   1.406       .  A
C651        C658   1.444       .  S
C652        C653   1.398       .  A
C653        C654   1.400       .  A
C653        H656   1.085       .  S
C654        C657   1.445       .  S
C657        N659   1.157       .  T
C658        N660   1.157       .  T
C661        C662   1.404       .  A
C661        C666   1.414       .  A
C662        C663   1.401       .  A
C662        H667   1.085       .  S
C663        C664   1.414       .  A
C663        C670   1.444       .  S
C664        C665   1.405       .  A
C665        C666   1.403       .  A
C665        H668   1.084       .  S
C666        C669   1.444       .  S
C669        N671   1.157       .  T
C670        N672   1.157       .  T
