geometry optimzed in LAMMPS
_audit_creation_date              2020-11-30 
_audit_creation_method            'lammps2cif' 
_symmetry_space_group_name_H-M    'P1' 
_symmetry_Int_Tables_number       1 
_symmetry_cell_setting            triclinic 
loop_ 
_symmetry_equiv_pos_as_xyz 
  x,y,z 
_cell_length_a                    34.76510769 
_cell_length_b                    26.15560320927266 
_cell_length_c                    47.653282650008144 
_cell_angle_alpha                 89.96348756844091 
_cell_angle_beta                  89.92965484588363 
_cell_angle_gamma                 90.31763667032443 
loop_ 
_atom_site_label 
_atom_site_type_symbol 
_atom_site_fract_x 
_atom_site_fract_y 
_atom_site_fract_z 
_atom_site_charge 
C1          C  0.03914944  0.49542095  0.13897888     0.30700
C2          C  0.45984328  0.49507387  0.14032123     0.30700
C3          C  0.02025493  0.50463636  0.16786581    -0.05500
C4          C  0.01922868  0.03737043  0.12141084    -0.06300
C5          C  0.01932774  0.44656281  0.12829940    -0.06100
C6          C  0.48020618  0.50307234  0.16844961    -0.05500
C7          C  0.47892219  0.03711203  0.12195283    -0.06200
C8          C  0.47902304  0.44633499  0.12864705    -0.06100
C9          C  0.46876464  0.51068416  0.19575778    -0.31500
N10         N  0.50061833  0.01835374  0.21166711     0.15000
C11         C  0.03209008  0.51581134  0.19487207    -0.31500
H12         H  0.06146625  0.01976071  0.20210974     0.16900
C13         C  0.46698255  0.07745312  0.10533558    -0.30500
N14         N  0.99856125  0.10207129  0.09523039     0.13700
C15         C  0.03041349  0.07833594  0.10498380    -0.30500
C16         C  0.46750084  0.40941810  0.10953291    -0.30800
N17         N  0.99905303  0.38640678  0.09873144     0.14200
H18         H  0.43841392  0.40259396  0.10232547     0.16800
C19         C  0.03070235  0.40995710  0.10920699    -0.30800
H20         H  0.05981932  0.40330309  0.10205166     0.16800
H21         H  0.05947645  0.09096048  0.10063228     0.16800
H22         H  0.43959165  0.00966679  0.20364111     0.16900
H23         H  0.43765538  0.08754761  0.10029481     0.16800
C24         C  0.20984157  0.49907832  0.13835217     0.30700
C25         C  0.28929750  0.50061385  0.13999577     0.30700
C26         C  0.22850431  0.00310970  0.16774211    -0.05500
C27         C  0.23019361  0.45267750  0.12564938    -0.06300
C28         C  0.22974728  0.04433948  0.12330164    -0.06100
C29         C  0.26866484  0.00340075  0.16841425    -0.05500
C30         C  0.27035483  0.45314416  0.12631320    -0.06200
C31         C  0.27004129  0.04420627  0.12328556    -0.06100
C32         C  0.27974179  0.50758439  0.19605655    -0.31500
N33         N  0.24761479  0.51002262  0.21217997     0.15000
C34         C  0.21632880  0.50874154  0.19516436    -0.31500
H35         H  0.18698374  0.51218014  0.20245535     0.16900
C36         C  0.28231774  0.41421393  0.10873613    -0.30500
N37         N  0.25079815  0.39034658  0.09808835     0.13700
C38         C  0.21893036  0.41374930  0.10802876    -0.30500
C39         C  0.28174408  0.08382353  0.10603439    -0.30800
N40         N  0.25015545  0.10920903  0.09707008     0.14200
H41         H  0.31091502  0.09246271  0.09956449     0.16800
C42         C  0.21842417  0.08611653  0.10779601    -0.30800
H43         H  0.18923103  0.09825712  0.10383817     0.16800
H44         H  0.18979226  0.40491485  0.10159217     0.16800
H45         H  0.30895022  0.50830638  0.20391890     0.16900
H46         H  0.31156150  0.40640710  0.10230144     0.16800
C47         C  0.04005858  0.49583145  0.40384318     0.30700
C48         C  0.46071998  0.49538305  0.40267720     0.30700
C49         C  0.02110442  0.00360408  0.37484360    -0.05500
C50         C  0.02022938  0.44751942  0.41529973    -0.06300
C51         C  0.02006588  0.03859896  0.42083039    -0.06100
C52         C  0.48102679  0.00200631  0.37439020    -0.05500
C53         C  0.47996032  0.44727796  0.41503801    -0.06200
C54         C  0.47976639  0.03826505  0.42038119    -0.06100
C55         C  0.46953093  0.50841304  0.34703361    -0.31500
N56         N  0.50135101  0.51481014  0.33089582     0.15000
C57         C  0.03287156  0.51362626  0.34764170    -0.31500
H58         H  0.06217263  0.51802902  0.34028609     0.16900
C59         C  0.46843767  0.41037336  0.43417215    -0.30500
N60         N  0.49999180  0.38731314  0.44488818     0.13700
C61         C  0.03167274  0.41080470  0.43431708    -0.30500
C62         C  0.46779105  0.07867748  0.43692358    -0.30800
N63         N  0.49933063  0.10344540  0.44691498     0.14200
H64         H  0.43845346  0.08846152  0.44217164     0.16800
C65         C  0.03121180  0.07969588  0.43714893    -0.30800
H66         H  0.06028276  0.09209395  0.44162313     0.16800
H67         H  0.06081756  0.40388402  0.44126702     0.16800
H68         H  0.44028035  0.50758701  0.33930028     0.16900
H69         H  0.43933881  0.40340873  0.44138034     0.16800
C70         C  0.21067465  0.49952013  0.40527788     0.30700
C71         C  0.29011835  0.50089727  0.40355471     0.30700
C72         C  0.22935091  0.50479487  0.37592895    -0.05500
C73         C  0.23059094  0.04404956  0.42083349    -0.06300
C74         C  0.23085163  0.45253338  0.41738365    -0.06100
C75         C  0.26949584  0.50513345  0.37521841    -0.05500
C76         C  0.27089547  0.04389016  0.42077599    -0.06200
C77         C  0.27103447  0.45286806  0.41670041    -0.06100
C78         C  0.28061286  0.51069591  0.34763113    -0.31500
N79         N  0.24846911  0.01459571  0.33162261     0.15000
C80         C  0.21719276  0.51137663  0.34858745    -0.31500
H81         H  0.18777432  0.01396355  0.34128799     0.16900
C82         C  0.28262686  0.08362525  0.43788898    -0.30500
N83         N  0.25099352  0.10887040  0.44696026     0.13700
C84         C  0.21927495  0.08577973  0.43632257    -0.30500
C85         C  0.28277745  0.41422291  0.43458577    -0.30800
N86         N  0.25116651  0.39052320  0.44526960     0.14200
H87         H  0.31192852  0.40661331  0.44125919     0.16800
C88         C  0.21942464  0.41396660  0.43523591    -0.30800
H89         H  0.19026119  0.40552500  0.44181788     0.16800
H90         H  0.19009839  0.09813626  0.44016481     0.16800
H91         H  0.30976843  0.01106408  0.33972742     0.16900
H92         H  0.31184127  0.09260797  0.44406387     0.16800
Zn93       Zn  0.03062534  0.30998235  0.02174779     1.49700
Zn94       Zn  0.46826010  0.24633855  0.48728111     1.49400
Zn95       Zn  0.03175907  0.18674012  0.02137106     1.49100
Zn96       Zn  0.46802811  0.24589952  0.05575723     1.49500
O97         O  0.49948203  0.24733982  0.02153477    -1.83400
O98         O  0.02176352  0.35326745  0.48726065    -0.74000
O99         O  0.47595548  0.18141949  0.46415854    -0.73800
O100        O  0.08664698  0.20726994  0.02154193    -0.73400
O101        O  0.47775581  0.30958517  0.46326574    -0.74000
O102        O  0.08604731  0.29240131  0.02187634    -0.73600
O103        O  0.02306212  0.14285719  0.48722022    -0.74200
O104        O  0.47541598  0.18047905  0.07846144    -0.73600
O105        O  0.41332180  0.24787893  0.49812914    -0.74400
O106        O  0.02258216  0.14225443  0.05521125    -0.73800
O107        O  0.41326314  0.24769592  0.04491248    -0.74200
O108        O  0.47710898  0.30875583  0.08011612    -0.74100
O109        O  0.02110024  0.35292649  0.05627851    -0.73900
C110        C  0.49980318  0.34837107  0.46606918     0.77900
C111        C  0.49944525  0.14449186  0.46687232     0.78300
C112        C  0.10391462  0.25019242  0.02172920     0.77300
C113        C  0.49882179  0.14351551  0.07551943     0.77700
C114        C  0.39580597  0.24842865  0.02153380     0.78800
C115        C  0.49900876  0.34772232  0.07742414     0.77900
Zn116      Zn  0.21809960  0.18966940  0.02186484     1.49700
Zn117      Zn  0.28183376  0.25048616  0.05570355     1.49400
Zn118      Zn  0.28187556  0.25066602  0.48771706     1.49100
Zn119      Zn  0.21870558  0.31242934  0.02170652     1.49500
O120        O  0.25019123  0.25093032  0.02174700    -1.83400
O121        O  0.22673126  0.14631897  0.05614252    -0.74000
O122        O  0.33673455  0.24991128  0.04497898    -0.73800
O123        O  0.27350869  0.18699039  0.46435782    -0.73400
O124        O  0.27313134  0.18691485  0.07927002    -0.74000
O125        O  0.22740042  0.14611058  0.48779036    -0.73600
O126        O  0.33673406  0.25032562  0.49824788    -0.74200
O127        O  0.22830412  0.35556710  0.48718582    -0.73600
O128        O  0.27366441  0.31365862  0.07946708    -0.74400
O129        O  0.27368747  0.31368428  0.46387860    -0.73800
O130        O  0.22811621  0.35529953  0.05624142    -0.74200
O131        O  0.16320623  0.29352222  0.02172963    -0.74100
O132        O  0.16316097  0.20841603  0.02174377    -0.73900
C133        C  0.24992153  0.14940135  0.07670389     0.77900
C134        C  0.35424263  0.24972076  0.02158940     0.78300
C135        C  0.25058554  0.14922788  0.46717336     0.77300
C136        C  0.25112038  0.35157443  0.46637882     0.77700
C137        C  0.25093568  0.35139964  0.07700780     0.78800
C138        C  0.14560393  0.25082170  0.02174197     0.77900
C139        C  0.39720331  0.04291031  0.39810354    -0.08400
C140        C  0.41648336  0.49583733  0.40040502     0.07800
C141        C  0.39386935  0.45132141  0.39592733    -0.02200
C142        C  0.35365210  0.45393112  0.39765880    -0.06600
C143        C  0.33438342  0.50077732  0.40106949     0.06900
C144        C  0.35687642  0.04563903  0.39715389    -0.01700
Br145      Br  0.33578497  0.11005332  0.38557327    -0.01400
H146        H  0.41365136  0.07785445  0.39562860     0.10800
H147        H  0.33731208  0.41913381  0.39445900     0.08800
Br148      Br  0.41431414  0.38845976  0.38143344    -0.01800
C149        C  0.10404036  0.00713143  0.42944148    -0.08400
C150        C  0.08432262  0.49293217  0.40483469     0.07800
C151        C  0.10635316  0.46669772  0.38440489    -0.02200
C152        C  0.14661792  0.47018847  0.38484102    -0.06600
C153        C  0.16639737  0.49551097  0.40660355     0.06900
C154        C  0.14436012  0.00627233  0.43100920    -0.01700
Br155      Br  0.16558920  0.00844420  0.46830237    -0.01400
H156        H  0.08808136  0.01502378  0.44840004     0.10800
H157        H  0.16255075  0.44973685  0.36896717     0.08800
Br158      Br  0.08482255  0.41700975  0.35905363    -0.01800
C159        C  0.26707737  0.05072571  0.25646179    -0.08400
C160        C  0.24686467  0.51196391  0.24231299     0.07800
C161        C  0.22654718  0.47493481  0.25802096    -0.02200
C162        C  0.22693396  0.47696122  0.28732524    -0.06600
C163        C  0.24741447  0.01533542  0.30149245     0.06900
C164        C  0.26712373  0.05298083  0.28585730    -0.01700
Br165      Br  0.29201277  0.10987231  0.30372341    -0.01400
H166        H  0.28231170  0.07971283  0.24452661     0.10800
H167        H  0.21191973  0.44772409  0.29922754     0.08800
Br168      Br  0.20014265  0.41874145  0.24058264    -0.01800
C169        C  0.35281239  0.45377547  0.14618901    -0.08400
C170        C  0.33355805  0.50052940  0.14234331     0.07800
C171        C  0.35612599  0.04545544  0.14581626    -0.02200
C172        C  0.39642874  0.04272327  0.14463473    -0.06600
C173        C  0.41562669  0.49561491  0.14273207     0.06900
C174        C  0.39305583  0.45127550  0.14785980    -0.01700
Br175      Br  0.41372269  0.38933027  0.16334726    -0.01400
H176        H  0.33642638  0.41908728  0.14971898     0.10800
H177        H  0.41289702  0.07771397  0.14676192     0.08800
Br178      Br  0.33522640  0.10985346  0.15757469    -0.01400
C179        C  0.10357136  0.00668172  0.11366725    -0.08400
C180        C  0.08342569  0.49243566  0.13814100     0.07800
C181        C  0.10514477  0.46628170  0.15874853    -0.02200
C182        C  0.14542814  0.46979229  0.15859306    -0.06600
C183        C  0.16555454  0.49502865  0.13690474     0.06900
C184        C  0.14391422  0.00584508  0.11237836    -0.01700
Br185      Br  0.16578807  0.00837137  0.07527419    -0.01400
H186        H  0.08793222  0.01451265  0.09458761     0.10800
H187        H  0.16107750  0.44927025  0.17456870     0.08800
Br188      Br  0.08306443  0.41676476  0.18400939    -0.01800
C189        C  0.01332066  0.06021522  0.28648025    -0.08400
C190        C  0.50179415  0.51577747  0.30080972     0.07800
C191        C  0.49064524  0.47229317  0.28540437    -0.02200
C192        C  0.49014651  0.47401283  0.25611907    -0.06600
C193        C  0.50117716  0.01846881  0.24174738     0.06900
C194        C  0.01297972  0.06179984  0.25704410    -0.01700
Br195      Br  0.02694489  0.12415630  0.23845985    -0.01400
H196        H  0.02197793  0.09375634  0.29825059     0.10800
H197        H  0.48166235  0.44033913  0.24438763     0.08800
Br198      Br  0.47782591  0.40904817  0.30357923    -0.01800
C199        C  0.03914946  0.49542090  0.63897890     0.30700
C200        C  0.45984333  0.49507380  0.64032125     0.30700
C201        C  0.02025494  0.50463632  0.66786582    -0.05500
C202        C  0.01922881  0.03737043  0.62141089    -0.06300
C203        C  0.01932777  0.44656284  0.62829938    -0.06100
C204        C  0.48020626  0.50307234  0.66844961    -0.05500
C205        C  0.47892215  0.03711199  0.62195286    -0.06200
C206        C  0.47902314  0.44633497  0.62864705    -0.06100
C207        C  0.46876471  0.51068431  0.69575772    -0.31500
N208        N  0.50061837  0.01835351  0.71166714     0.15000
C209        C  0.03209007  0.51581135  0.69487206    -0.31500
H210        H  0.06146708  0.01976062  0.70210998     0.16900
C211        C  0.46698256  0.07745317  0.60533562    -0.30500
N212        N  0.99856141  0.10207133  0.59523043     0.13700
C213        C  0.03041374  0.07833592  0.60498380    -0.30500
C214        C  0.46750112  0.40941810  0.60953295    -0.30800
N215        N  0.99905305  0.38640678  0.59873147     0.14200
H216        H  0.43841334  0.40259372  0.60232530     0.16800
C217        C  0.03070223  0.40995714  0.60920701    -0.30800
H218        H  0.05981987  0.40330296  0.60205148     0.16800
H219        H  0.05947627  0.09096021  0.60063234     0.16800
H220        H  0.43959189  0.00966659  0.70364109     0.16900
H221        H  0.43765534  0.08754776  0.60029485     0.16800
C222        C  0.20984165  0.49907820  0.63835215     0.30700
C223        C  0.28929761  0.50061374  0.63999579     0.30700
C224        C  0.22850430  0.00310960  0.66774213    -0.05500
C225        C  0.23019371  0.45267734  0.62564941    -0.06300
C226        C  0.22974740  0.04433932  0.62330165    -0.06100
C227        C  0.26866484  0.00340074  0.66841430    -0.05500
C228        C  0.27035493  0.45314399  0.62631325    -0.06200
C229        C  0.27004141  0.04420606  0.62328554    -0.06100
C230        C  0.27974200  0.50758426  0.69605660    -0.31500
N231        N  0.24761480  0.51002263  0.71217995     0.15000
C232        C  0.21632898  0.50874163  0.69516429    -0.31500
H233        H  0.18698334  0.51218040  0.70245537     0.16900
C234        C  0.28231796  0.41421368  0.60873617    -0.30500
N235        N  0.25079824  0.39034640  0.59808838     0.13700
C236        C  0.21893042  0.41374920  0.60802872    -0.30500
C237        C  0.28174428  0.08382321  0.60603428    -0.30800
N238        N  0.25015561  0.10920872  0.59706997     0.14200
H239        H  0.31091501  0.09246234  0.59956442     0.16800
C240        C  0.21842438  0.08611633  0.60779601    -0.30800
H241        H  0.18923105  0.09825705  0.60383820     0.16800
H242        H  0.18979268  0.40491499  0.60159216     0.16800
H243        H  0.30894961  0.50830603  0.70391879     0.16900
H244        H  0.31156093  0.40640699  0.60230168     0.16800
C245        C  0.04005842  0.49583142  0.90384318     0.30700
C246        C  0.46071973  0.49538306  0.90267717     0.30700
C247        C  0.02110429  0.00360396  0.87484361    -0.05500
C248        C  0.02022919  0.44751936  0.91529967    -0.06300
C249        C  0.02006573  0.03859885  0.92083044    -0.06100
C250        C  0.48102662  0.00200618  0.87439017    -0.05500
C251        C  0.47996005  0.44727796  0.91503793    -0.06200
C252        C  0.47976628  0.03826486  0.92038125    -0.06100
C253        C  0.46953093  0.50841319  0.84703364    -0.31500
N254        N  0.50135088  0.51481027  0.83089584     0.15000
C255        C  0.03287140  0.51362641  0.84764172    -0.31500
H256        H  0.06217251  0.51802914  0.84028611     0.16900
C257        C  0.46843727  0.41037327  0.93417206    -0.30500
N258        N  0.49999160  0.38731303  0.94488806     0.13700
C259        C  0.03167242  0.41080463  0.93431698    -0.30500
C260        C  0.46779076  0.07867741  0.93692365    -0.30800
N261        N  0.49933049  0.10344541  0.94691499     0.14200
H262        H  0.43845419  0.08846111  0.94217152     0.16800
C263        C  0.03121156  0.07969583  0.93714895    -0.30800
H264        H  0.06028309  0.09209417  0.94162318     0.16800
H265        H  0.06081768  0.40388385  0.94126707     0.16800
H266        H  0.44027940  0.50758711  0.83930002     0.16900
H267        H  0.43933927  0.40340884  0.94138006     0.16800
C268        C  0.21067450  0.49952010  0.90527789     0.30700
C269        C  0.29011818  0.50089730  0.90355475     0.30700
C270        C  0.22935079  0.50479500  0.87592897    -0.05500
C271        C  0.23059072  0.04404951  0.92083357    -0.06300
C272        C  0.23085149  0.45253336  0.91738365    -0.06100
C273        C  0.26949571  0.50513348  0.87521844    -0.05500
C274        C  0.27089523  0.04388999  0.92077615    -0.06200
C275        C  0.27103434  0.45286807  0.91670045    -0.06100
C276        C  0.28061278  0.51069571  0.84763115    -0.31500
N277        N  0.24846894  0.01459589  0.83162265     0.15000
C278        C  0.21719269  0.51137673  0.84858745    -0.31500
H279        H  0.18777398  0.01396381  0.84128804     0.16900
C280        C  0.28262658  0.08362518  0.93788909    -0.30500
N281        N  0.25099326  0.10887047  0.94696029     0.13700
C282        C  0.21927460  0.08577981  0.93632259    -0.30500
C283        C  0.28277734  0.41422294  0.93458579    -0.30800
N284        N  0.25116639  0.39052316  0.94526955     0.14200
H285        H  0.31192850  0.40661332  0.94125924     0.16800
C286        C  0.21942456  0.41396662  0.93523591    -0.30800
H287        H  0.19026093  0.40552495  0.94181794     0.16800
H288        H  0.19009862  0.09813613  0.94016473     0.16800
H289        H  0.30976811  0.01106403  0.83972747     0.16900
H290        H  0.31184097  0.09260792  0.94406395     0.16800
Zn291      Zn  0.03062553  0.30998243  0.52174785     1.49700
Zn292      Zn  0.46826000  0.24633841  0.98728112     1.49400
Zn293      Zn  0.03175925  0.18673993  0.52137108     1.49100
Zn294      Zn  0.46802829  0.24589936  0.55575726     1.49500
O295        O  0.49948209  0.24733970  0.52153478    -1.83400
O296        O  0.02176334  0.35326720  0.98726045    -0.74000
O297        O  0.47595538  0.18141955  0.96415856    -0.73800
O298        O  0.08664720  0.20726989  0.52154195    -0.73400
O299        O  0.47775561  0.30958501  0.96326559    -0.74000
O300        O  0.08604751  0.29240127  0.52187654    -0.73600
O301        O  0.02306202  0.14285732  0.98722024    -0.74200
O302        O  0.47541616  0.18047910  0.57846148    -0.73600
O303        O  0.41332165  0.24787867  0.99812907    -0.74400
O304        O  0.02258220  0.14225441  0.55521125    -0.73800
O305        O  0.41326330  0.24769570  0.54491255    -0.74200
O306        O  0.47710917  0.30875585  0.58011611    -0.74100
O307        O  0.02110041  0.35292663  0.55627857    -0.73900
C308        C  0.49980288  0.34837093  0.96606906     0.77900
C309        C  0.49944511  0.14449193  0.96687232     0.78300
C310        C  0.10391483  0.25019238  0.52172929     0.77300
C311        C  0.49882192  0.14351552  0.57551947     0.77700
C312        C  0.39580612  0.24842865  0.52153386     0.78800
C313        C  0.49900895  0.34772238  0.57742416     0.77900
Zn314      Zn  0.21809979  0.18966919  0.52186470     1.49700
Zn315      Zn  0.28183395  0.25048619  0.55570358     1.49400
Zn316      Zn  0.28187545  0.25066616  0.98771695     1.49100
Zn317      Zn  0.21870581  0.31242912  0.52170656     1.49500
O318        O  0.25019141  0.25093011  0.52174704    -1.83400
O319        O  0.22673150  0.14631875  0.55614240    -0.74000
O320        O  0.33673472  0.24991109  0.54497901    -0.73800
O321        O  0.27350837  0.18699055  0.96435779    -0.73400
O322        O  0.27313149  0.18691468  0.57927002    -0.74000
O323        O  0.22740024  0.14611069  0.98779045    -0.73600
O324        O  0.33673392  0.25032575  0.99824784    -0.74200
O325        O  0.22830380  0.35556710  0.98718567    -0.73600
O326        O  0.27366460  0.31365848  0.57946714    -0.74400
O327        O  0.27368738  0.31368437  0.96387860    -0.73800
O328        O  0.22811640  0.35529928  0.55624145    -0.74200
O329        O  0.16320654  0.29352214  0.52172966    -0.74100
O330        O  0.16316119  0.20841597  0.52174378    -0.73900
C331        C  0.24992171  0.14940114  0.57670382     0.77900
C332        C  0.35424279  0.24972061  0.52158944     0.78300
C333        C  0.25058525  0.14922801  0.96717338     0.77300
C334        C  0.25112020  0.35157442  0.96637875     0.77700
C335        C  0.25093584  0.35139945  0.57700784     0.78800
C336        C  0.14560418  0.25082167  0.52174201     0.77900
C337        C  0.39720317  0.04291038  0.89810357    -0.08400
C338        C  0.41648312  0.49583733  0.90040500     0.07800
C339        C  0.39386911  0.45132146  0.89592719    -0.02200
C340        C  0.35365188  0.45393115  0.89765880    -0.06600
C341        C  0.33438323  0.50077736  0.90106954     0.06900
C342        C  0.35687624  0.04563910  0.89715394    -0.01700
Br343      Br  0.33578461  0.11005346  0.88557351    -0.01400
H344        H  0.41365115  0.07785437  0.89562864     0.10800
H345        H  0.33731182  0.41913375  0.89445900     0.08800
Br346      Br  0.41431378  0.38845991  0.88143306    -0.01800
C347        C  0.10404013  0.00713117  0.92944151    -0.08400
C348        C  0.08432247  0.49293224  0.90483470     0.07800
C349        C  0.10635299  0.46669793  0.88440484    -0.02200
C350        C  0.14661776  0.47018860  0.88484100    -0.06600
C351        C  0.16639722  0.49551101  0.90660356     0.06900
C352        C  0.14435991  0.00627212  0.93100922    -0.01700
Br353      Br  0.16558883  0.00844433  0.96830241    -0.01400
H354        H  0.08808133  0.01502345  0.94839977     0.10800
H355        H  0.16255063  0.44973692  0.86896713     0.08800
Br356      Br  0.08482219  0.41700989  0.85905367    -0.01800
C357        C  0.26707779  0.05072514  0.75646186    -0.08400
C358        C  0.24686465  0.51196388  0.74231297     0.07800
C359        C  0.22654635  0.47493549  0.75802091    -0.02200
C360        C  0.22693314  0.47696187  0.78732519    -0.06600
C361        C  0.24741431  0.01533563  0.80149249     0.06900
C362        C  0.26712420  0.05298047  0.78585733    -0.01700
Br363      Br  0.29201411  0.10987131  0.80372343    -0.01400
H364        H  0.28231297  0.07971243  0.74452639     0.10800
H365        H  0.21191835  0.44772513  0.79922748     0.08800
Br366      Br  0.20014110  0.41874271  0.74058266    -0.01800
C367        C  0.35281240  0.45377542  0.64618919    -0.08400
C368        C  0.33355811  0.50052937  0.64234338     0.07800
C369        C  0.35612602  0.04545536  0.64581628    -0.02200
C370        C  0.39642875  0.04272313  0.64463476    -0.06600
C371        C  0.41562671  0.49561488  0.64273210     0.06900
C372        C  0.39305585  0.45127548  0.64785987    -0.01700
Br373      Br  0.41372288  0.38933039  0.66334730    -0.01400
H374        H  0.33642655  0.41908754  0.64971917     0.10800
H375        H  0.41289720  0.07771404  0.64676199     0.08800
Br376      Br  0.33522632  0.10985325  0.65757472    -0.01400
C377        C  0.10357145  0.00668156  0.61366731    -0.08400
C378        C  0.08342569  0.49243571  0.63814103     0.07800
C379        C  0.10514480  0.46628169  0.65874849    -0.02200
C380        C  0.14542814  0.46979238  0.65859305    -0.06600
C381        C  0.16555457  0.49502864  0.63690472     0.06900
C382        C  0.14391427  0.00584512  0.61237841    -0.01700
Br383      Br  0.16578825  0.00837114  0.57527423    -0.01400
H384        H  0.08793203  0.01451261  0.59458731     0.10800
H385        H  0.16107755  0.44927026  0.67456875     0.08800
Br386      Br  0.08306460  0.41676451  0.68400922    -0.01800
C387        C  0.01332076  0.06021534  0.78648032    -0.08400
C388        C  0.50179409  0.51577752  0.80080975     0.07800
C389        C  0.49064544  0.47229307  0.78540440    -0.02200
C390        C  0.49014668  0.47401256  0.75611905    -0.06600
C391        C  0.50117716  0.01846869  0.74174742     0.06900
C392        C  0.01297967  0.06179975  0.75704412    -0.01700
Br393      Br  0.02694481  0.12415611  0.73845987    -0.01400
H394        H  0.02197782  0.09375548  0.79825029     0.10800
H395        H  0.48166287  0.44033951  0.74438790     0.08800
Br396      Br  0.47782639  0.40904795  0.80357926    -0.01800
C397        C  0.03917279  0.99541056  0.13897910     0.30700
C398        C  0.45986652  0.99506278  0.14032698     0.30700
C399        C  0.02028221  0.00461431  0.16786836    -0.05500
C400        C  0.01920785  0.53737470  0.12140474    -0.06300
C401        C  0.01934989  0.94655644  0.12829628    -0.06100
C402        C  0.48023326  0.00305199  0.16845452    -0.05500
C403        C  0.47890127  0.53711771  0.12194414    -0.06200
C404        C  0.47904504  0.94632892  0.12864692    -0.06100
C405        C  0.46879493  0.01066207  0.19576321    -0.31500
N406        N  0.50058592  0.51838093  0.21166334     0.15000
C407        C  0.03212127  0.01578153  0.19487465    -0.31500
H408        H  0.06143437  0.51979280  0.20210882     0.16900
C409        C  0.46696484  0.57745839  0.10532493    -0.30500
N410        N  0.99854556  0.60207380  0.09522082     0.13700
C411        C  0.03039603  0.57833749  0.10497678    -0.30500
C412        C  0.46752016  0.90942166  0.10952901    -0.30800
N413        N  0.99907023  0.88641357  0.09872344     0.14200
H414        H  0.43843167  0.90260105  0.10232217     0.16800
C415        C  0.03072167  0.90995797  0.10919906    -0.30800
H416        H  0.05983786  0.90330445  0.10204115     0.16800
H417        H  0.05945882  0.59096048  0.10062793     0.16800
H418        H  0.43956047  0.50968174  0.20363466     0.16900
H419        H  0.43763859  0.58755602  0.10028346     0.16800
C420        C  0.20986290  0.99907970  0.13835052     0.30700
C421        C  0.28931900  0.00061062  0.13999786     0.30700
C422        C  0.22848602  0.50311616  0.16774350    -0.05500
C423        C  0.23021410  0.95268132  0.12564661    -0.06300
C424        C  0.22972370  0.54433646  0.12329966    -0.06100
C425        C  0.26864687  0.50341075  0.16841241    -0.05500
C426        C  0.27037512  0.95314475  0.12631097    -0.06200
C427        C  0.27001756  0.54420435  0.12328199    -0.06100
C428        C  0.27975389  0.00756004  0.19606091    -0.31500
N429        N  0.24762240  0.00999329  0.21218123     0.15000
C430        C  0.21634104  0.00872647  0.19516136    -0.31500
H431        H  0.18699508  0.01217278  0.20244763     0.16900
C432        C  0.28233481  0.91420938  0.10873601    -0.30500
N433        N  0.25081340  0.89034386  0.09809001     0.13700
C434        C  0.21894674  0.91375079  0.10802945    -0.30500
C435        C  0.28171932  0.58382119  0.10603110    -0.30800
N436        N  0.25013069  0.60920608  0.09706735     0.14200
H437        H  0.31089127  0.59246229  0.09956145     0.16800
C438        C  0.21839937  0.58611356  0.10779383    -0.30800
H439        H  0.18920735  0.59825430  0.10383722     0.16800
H440        H  0.18981233  0.90491863  0.10159562     0.16800
H441        H  0.30895782  0.00827780  0.20392585     0.16900
H442        H  0.31157974  0.90639618  0.10230152     0.16800
C443        C  0.04002851  0.99582942  0.40384156     0.30700
C444        C  0.46068997  0.99538719  0.40267292     0.30700
C445        C  0.02113099  0.50357662  0.37484244    -0.05500
C446        C  0.02019823  0.94750774  0.41528262    -0.06300
C447        C  0.02009531  0.53861593  0.42082153    -0.06100
C448        C  0.48105339  0.50197498  0.37439194    -0.05500
C449        C  0.47992834  0.94726840  0.41502095    -0.06200
C450        C  0.47979609  0.53827704  0.42037329    -0.06100
C451        C  0.46951028  0.00846349  0.34703186    -0.31500
N452        N  0.50133452  0.01486736  0.33089867     0.15000
C453        C  0.03285139  0.01366905  0.34764699    -0.31500
H454        H  0.06215430  0.01806396  0.34029458     0.16900
C455        C  0.46840703  0.91036952  0.43415983    -0.30500
N456        N  0.49996162  0.88730932  0.44487544     0.13700
C457        C  0.03164127  0.91079744  0.43430186    -0.30500
C458        C  0.46781699  0.57868686  0.43691573    -0.30800
N459        N  0.49935365  0.60346175  0.44690591     0.14200
H460        H  0.43847973  0.58845988  0.44216802     0.16800
C461        C  0.03123755  0.57971589  0.43714032    -0.30800
H462        H  0.06030752  0.59211293  0.44161829     0.16800
H463        H  0.06078659  0.90388124  0.44125387     0.16800
H464        H  0.44026150  0.00763536  0.33929443     0.16900
H465        H  0.43931015  0.90341216  0.44137230     0.16800
C466        C  0.21064408  0.99951702  0.40528015     0.30700
C467        C  0.29008786  0.00089845  0.40355487     0.30700
C468        C  0.22931974  0.00478856  0.37593050    -0.05500
C469        C  0.23062182  0.54404817  0.42083367    -0.06300
C470        C  0.23082376  0.95253372  0.41738878    -0.06100
C471        C  0.26946435  0.00512736  0.37521966    -0.05500
C472        C  0.27092612  0.54388719  0.42077861    -0.06200
C473        C  0.27100652  0.95287133  0.41670407    -0.06100
C474        C  0.28058206  0.01069170  0.34763343    -0.31500
N475        N  0.24849852  0.51459446  0.33162078     0.15000
C476        C  0.21716235  0.01137660  0.34858901    -0.31500
H477        H  0.18780327  0.51395880  0.34128602     0.16900
C478        C  0.28265479  0.58362051  0.43789492    -0.30500
N479        N  0.25101962  0.60886476  0.44696476     0.13700
C480        C  0.21930346  0.58577659  0.43632251    -0.30500
C481        C  0.28275337  0.91422520  0.43458696    -0.30800
N482        N  0.25114499  0.89052206  0.44527197     0.14200
H483        H  0.31190628  0.90661635  0.44125807     0.16800
C484        C  0.21940056  0.91396452  0.43524110    -0.30800
H485        H  0.19023812  0.90551974  0.44182449     0.16800
H486        H  0.19012641  0.59813411  0.44016131     0.16800
H487        H  0.30979749  0.51107019  0.33972439     0.16900
H488        H  0.31186863  0.59260357  0.44407204     0.16800
Zn489      Zn  0.03061966  0.80999617  0.02173500     1.49700
Zn490      Zn  0.46825173  0.74633914  0.48727931     1.49400
Zn491      Zn  0.03175686  0.68675366  0.02136754     1.49100
Zn492      Zn  0.46802930  0.74591383  0.05575407     1.49500
O493        O  0.49947844  0.74735150  0.02152943    -1.83400
O494        O  0.02174512  0.85327458  0.48724707    -0.74000
O495        O  0.47595834  0.68142118  0.46415609    -0.73800
O496        O  0.08664214  0.70728613  0.02154526    -0.73400
O497        O  0.47773252  0.80958468  0.46326097    -0.74000
O498        O  0.08604320  0.79241773  0.02186135    -0.73600
O499        O  0.02307747  0.64287655  0.48721288    -0.74200
O500        O  0.47540983  0.68048971  0.07845611    -0.73600
O501        O  0.41331548  0.74787300  0.49813303    -0.74400
O502        O  0.02257142  0.64226003  0.05520388    -0.73800
O503        O  0.41326218  0.74772160  0.04491635    -0.74200
O504        O  0.47712388  0.80876402  0.08011166    -0.74100
O505        O  0.02110217  0.85294195  0.05626501    -0.73900
C506        C  0.49977796  0.84837328  0.46605953     0.77900
C507        C  0.49945945  0.64450479  0.46686573     0.78300
C508        C  0.10391008  0.75020814  0.02172408     0.77300
C509        C  0.49881087  0.64352152  0.07551190     0.77700
C510        C  0.39580230  0.74843903  0.02153868     0.78800
C511        C  0.49902034  0.84773250  0.07741537     0.77900
Zn512      Zn  0.21809202  0.68967281  0.02186007     1.49700
Zn513      Zn  0.28182828  0.75047836  0.05570639     1.49400
Zn514      Zn  0.28187384  0.75067155  0.48772099     1.49100
Zn515      Zn  0.21870366  0.81243128  0.02171248     1.49500
O516        O  0.25018677  0.75093032  0.02174923    -1.83400
O517        O  0.22671070  0.64632266  0.05614009    -0.74000
O518        O  0.33673076  0.74989905  0.04498530    -0.73800
O519        O  0.27352705  0.68698711  0.46436517    -0.73400
O520        O  0.27311371  0.68690882  0.07927010    -0.74000
O521        O  0.22740754  0.64611121  0.48778781    -0.73600
O522        O  0.33673062  0.75034998  0.49825439    -0.74200
O523        O  0.22829492  0.85556807  0.48719171    -0.73600
O524        O  0.27366789  0.81364944  0.07947048    -0.74400
O525        O  0.27367235  0.81368404  0.46387897    -0.73800
O526        O  0.22812455  0.85529991  0.05624509    -0.74200
O527        O  0.16320359  0.79353285  0.02173762    -0.74100
O528        O  0.16315425  0.70842669  0.02173089    -0.73900
C529        C  0.24989936  0.64940052  0.07670267     0.77900
C530        C  0.35423901  0.74972897  0.02159572     0.78300
C531        C  0.25060377  0.64922408  0.46717701     0.77300
C532        C  0.25110484  0.85157373  0.46638139     0.77700
C533        C  0.25094479  0.85139592  0.07701059     0.78800
C534        C  0.14559927  0.75083413  0.02173859     0.77900
C535        C  0.39723426  0.54290428  0.39810777    -0.08400
C536        C  0.41645277  0.99584270  0.40039860     0.07800
C537        C  0.39383735  0.95132680  0.39592214    -0.02200
C538        C  0.35362087  0.95393681  0.39765627    -0.06600
C539        C  0.33435260  0.00078204  0.40106799     0.06900
C540        C  0.35690815  0.54563386  0.39715803    -0.01700
Br541      Br  0.33582032  0.61005270  0.38558339    -0.01400
H542        H  0.41368207  0.57784837  0.39563067     0.10800
H543        H  0.33728004  0.91913906  0.39445687     0.08800
Br544      Br  0.41427460  0.88846410  0.38142403    -0.01800
C545        C  0.10407176  0.50714357  0.42944124    -0.08400
C546        C  0.08429211  0.99292650  0.40483358     0.07800
C547        C  0.10632259  0.96669672  0.38440196    -0.02200
C548        C  0.14658773  0.97018442  0.38484040    -0.06600
C549        C  0.16636665  0.99550402  0.40660477     0.06900
C550        C  0.14439194  0.50628103  0.43100853    -0.01700
Br551      Br  0.16562287  0.50844271  0.46830172    -0.01400
H552        H  0.08811299  0.51504221  0.44839907     0.10800
H553        H  0.16252092  0.94973602  0.36896538     0.08800
Br554      Br  0.08478865  0.91702900  0.35903933    -0.01800
C555        C  0.26704468  0.55077984  0.25646016    -0.08400
C556        C  0.24686298  0.01194160  0.24231436     0.07800
C557        C  0.22649527  0.97495970  0.25802276    -0.02200
C558        C  0.22687157  0.97699831  0.28732669    -0.06600
C559        C  0.24744070  0.51533273  0.30149087     0.06900
C560        C  0.26710308  0.55302115  0.28585622    -0.01700
Br561      Br  0.29194270  0.60994531  0.30372695    -0.01400
H562        H  0.28224383  0.57980027  0.24452439     0.10800
H563        H  0.21182195  0.94779409  0.29922864     0.08800
Br564      Br  0.20003160  0.91880765  0.24059105    -0.01800
C565        C  0.35283272  0.95376678  0.14618854    -0.08400
C566        C  0.33358001  0.00052337  0.14234730     0.07800
C567        C  0.35610187  0.54546372  0.14580889    -0.02200
C568        C  0.39640457  0.54273469  0.14462362    -0.06600
C569        C  0.41564959  0.99560329  0.14273938     0.06900
C570        C  0.39307628  0.95126250  0.14785900    -0.01700
Br571      Br  0.41373900  0.88930148  0.16333085    -0.01400
H572        H  0.33644576  0.91907904  0.14971389     0.10800
H573        H  0.41287182  0.57772702  0.14674757     0.08800
Br574      Br  0.33519874  0.60985631  0.15757329    -0.01400
C575        C  0.10354973  0.50667828  0.11366842    -0.08400
C576        C  0.08344870  0.99242604  0.13813827     0.07800
C577        C  0.10516880  0.96626087  0.15874055    -0.02200
C578        C  0.14545175  0.96977618  0.15858611    -0.06600
C579        C  0.16557636  0.99502832  0.13690231     0.06900
C580        C  0.14389241  0.50583887  0.11237968    -0.01700
Br581      Br  0.16576593  0.50836313  0.07527527    -0.01400
H582        H  0.08791039  0.51450446  0.09458694     0.10800
H583        H  0.16110195  0.94924704  0.17455780     0.08800
Br584      Br  0.08309058  0.91672226  0.18398923    -0.01800
C585        C  0.01330929  0.56019233  0.28648365    -0.08400
C586        C  0.50178940  0.01581521  0.30081306     0.07800
C587        C  0.49065078  0.97231799  0.28541547    -0.02200
C588        C  0.49016626  0.97401509  0.25612982    -0.06600
C589        C  0.50114595  0.51847906  0.24174391     0.06900
C590        C  0.01294750  0.56180184  0.25704785    -0.01700
Br591      Br  0.02687570  0.62418267  0.23847430    -0.01400
H592        H  0.02196667  0.59372696  0.29825916     0.10800
H593        H  0.48168478  0.94033376  0.24440411     0.08800
Br594      Br  0.47783330  0.90908471  0.30360409    -0.01800
C595        C  0.03917286  0.99541050  0.63897912     0.30700
C596        C  0.45986652  0.99506265  0.64032700     0.30700
C597        C  0.02028231  0.00461416  0.66786840    -0.05500
C598        C  0.01920796  0.53737461  0.62140474    -0.06300
C599        C  0.01934989  0.94655648  0.62829625    -0.06100
C600        C  0.48023326  0.00305179  0.66845455    -0.05500
C601        C  0.47890127  0.53711761  0.62194417    -0.06200
C602        C  0.47904509  0.94632881  0.62864693    -0.06100
C603        C  0.46879489  0.01066183  0.69576325    -0.31500
N604        N  0.50058590  0.51838098  0.71166335     0.15000
C605        C  0.03212119  0.01578129  0.69487467    -0.31500
H606        H  0.06143447  0.51979276  0.70210882     0.16900
C607        C  0.46696485  0.57745823  0.60532494    -0.30500
N608        N  0.99854570  0.60207370  0.59522080     0.13700
C609        C  0.03039602  0.57833733  0.60497678    -0.30500
C610        C  0.46752035  0.90942149  0.60952907    -0.30800
N611        N  0.99907026  0.88641345  0.59872352     0.14200
H612        H  0.43843140  0.90260070  0.60232210     0.16800
C613        C  0.03072168  0.90995798  0.60919907    -0.30800
H614        H  0.05983766  0.90330457  0.60204122     0.16800
H615        H  0.05945970  0.59096074  0.60062782     0.16800
H616        H  0.43956028  0.50968189  0.70363458     0.16900
H617        H  0.43763839  0.58755589  0.60028346     0.16800
C618        C  0.20986295  0.99907959  0.63835055     0.30700
C619        C  0.28931905  0.00061051  0.63999791     0.30700
C620        C  0.22848613  0.50311609  0.66774348    -0.05500
C621        C  0.23021415  0.95268117  0.62564666    -0.06300
C622        C  0.22972384  0.54433625  0.62329960    -0.06100
C623        C  0.26864698  0.50341070  0.66841242    -0.05500
C624        C  0.27037519  0.95314456  0.62631107    -0.06200
C625        C  0.27001768  0.54420423  0.62328199    -0.06100
C626        C  0.27975379  0.00756018  0.69606096    -0.31500
N627        N  0.24762226  0.00999340  0.71218126     0.15000
C628        C  0.21634096  0.00872654  0.69516134    -0.31500
H629        H  0.18699500  0.01217293  0.70244755     0.16900
C630        C  0.28233494  0.91420912  0.60873618    -0.30500
N631        N  0.25081349  0.89034371  0.59809006     0.13700
C632        C  0.21894700  0.91375079  0.60802948    -0.30500
C633        C  0.28171944  0.58382104  0.60603109    -0.30800
N634        N  0.25013084  0.60920584  0.59706726     0.14200
H635        H  0.31089147  0.59246218  0.59956144     0.16800
C636        C  0.21839939  0.58611340  0.60779376    -0.30800
H637        H  0.18920815  0.59825391  0.60383732     0.16800
H638        H  0.18981166  0.90491845  0.60159536     0.16800
H639        H  0.30895782  0.00827796  0.70392597     0.16900
H640        H  0.31157990  0.90639583  0.60230175     0.16800
C641        C  0.04002836  0.99582927  0.90384157     0.30700
C642        C  0.46068982  0.99538708  0.90267291     0.30700
C643        C  0.02113084  0.50357672  0.87484245    -0.05500
C644        C  0.02019802  0.94750759  0.91528257    -0.06300
C645        C  0.02009517  0.53861583  0.92082156    -0.06100
C646        C  0.48105318  0.50197509  0.87439193    -0.05500
C647        C  0.47992820  0.94726819  0.91502085    -0.06200
C648        C  0.47979582  0.53827701  0.92037328    -0.06100
C649        C  0.46951022  0.00846358  0.84703184    -0.31500
N650        N  0.50133442  0.01486753  0.83089869     0.15000
C651        C  0.03285131  0.01366910  0.84764702    -0.31500
H652        H  0.06215413  0.01806402  0.84029466     0.16900
C653        C  0.46840689  0.91036923  0.93415968    -0.30500
N654        N  0.49996148  0.88730900  0.94487528     0.13700
C655        C  0.03164111  0.91079714  0.93430177    -0.30500
C656        C  0.46781690  0.57868670  0.93691577    -0.30800
N657        N  0.49935341  0.60346155  0.94690599     0.14200
H658        H  0.43847869  0.58846004  0.94216826     0.16800
C659        C  0.03123724  0.57971568  0.93714035    -0.30800
H660        H  0.06030826  0.59211315  0.94161847     0.16800
H661        H  0.06078578  0.90388112  0.94125366     0.16800
H662        H  0.44026110  0.00763555  0.83929426     0.16900
H663        H  0.43930998  0.90341189  0.94137217     0.16800
C664        C  0.21064389  0.99951701  0.90528018     0.30700
C665        C  0.29008768  0.00089840  0.90355492     0.30700
C666        C  0.22931958  0.00478871  0.87593054    -0.05500
C667        C  0.23062163  0.54404807  0.92083371    -0.06300
C668        C  0.23082357  0.95253358  0.91738870    -0.06100
C669        C  0.26946419  0.00512749  0.87521971    -0.05500
C670        C  0.27092592  0.54388717  0.92077864    -0.06200
C671        C  0.27100632  0.95287117  0.91670397    -0.06100
C672        C  0.28058192  0.01069181  0.84763345    -0.31500
N673        N  0.24849846  0.51459430  0.83162077     0.15000
C674        C  0.21716222  0.01137678  0.84858907    -0.31500
H675        H  0.18780318  0.51395899  0.84128601     0.16900
C676        C  0.28265455  0.58362052  0.93789493    -0.30500
N677        N  0.25101934  0.60886463  0.94696480     0.13700
C678        C  0.21930321  0.58577641  0.93632257    -0.30500
C679        C  0.28275331  0.91422522  0.93458699    -0.30800
N680        N  0.25114483  0.89052201  0.94527195     0.14200
H681        H  0.31190549  0.90661679  0.94125802     0.16800
C682        C  0.21940039  0.91396429  0.93524101    -0.30800
H683        H  0.19023798  0.90551944  0.94182444     0.16800
H684        H  0.19012603  0.59813390  0.94016136     0.16800
H685        H  0.30979738  0.51106980  0.83972445     0.16900
H686        H  0.31186829  0.59260362  0.94407203     0.16800
Zn687      Zn  0.03061987  0.80999628  0.52173503     1.49700
Zn688      Zn  0.46825141  0.74633891  0.98727933     1.49400
Zn689      Zn  0.03175685  0.68675377  0.52136756     1.49100
Zn690      Zn  0.46802930  0.74591391  0.55575410     1.49500
O691        O  0.49947863  0.74735165  0.52152947    -1.83400
O692        O  0.02174476  0.85327460  0.98724704    -0.74000
O693        O  0.47595815  0.68142099  0.96415612    -0.73800
O694        O  0.08664224  0.70728618  0.52154529    -0.73400
O695        O  0.47773238  0.80958443  0.96326095    -0.74000
O696        O  0.08604343  0.79241778  0.52186139    -0.73600
O697        O  0.02307739  0.64287660  0.98721286    -0.74200
O698        O  0.47540995  0.68048974  0.57845616    -0.73600
O699        O  0.41331525  0.74787274  0.99813298    -0.74400
O700        O  0.02257159  0.64226009  0.55520392    -0.73800
O701        O  0.41326230  0.74772144  0.54491639    -0.74200
O702        O  0.47712409  0.80876388  0.58011168    -0.74100
O703        O  0.02110229  0.85294194  0.55626508    -0.73900
C704        C  0.49977773  0.84837313  0.96605947     0.77900
C705        C  0.49945932  0.64450465  0.96686577     0.78300
C706        C  0.10391025  0.75020814  0.52172412     0.77300
C707        C  0.49881092  0.64352147  0.57551192     0.77700
C708        C  0.39580248  0.74843905  0.52153870     0.78800
C709        C  0.49902053  0.84773239  0.57741543     0.77900
Zn710      Zn  0.21809222  0.68967289  0.52186009     1.49700
Zn711      Zn  0.28182847  0.75047817  0.55570641     1.49400
Zn712      Zn  0.28187371  0.75067165  0.98772101     1.49100
Zn713      Zn  0.21870384  0.81243109  0.52171237     1.49500
O714        O  0.25018699  0.75093017  0.52174925    -1.83400
O715        O  0.22671088  0.64632245  0.55613997    -0.74000
O716        O  0.33673095  0.74989911  0.54498529    -0.73800
O717        O  0.27352689  0.68698688  0.96436526    -0.73400
O718        O  0.27311390  0.68690854  0.57927000    -0.74000
O719        O  0.22740725  0.64611104  0.98778783    -0.73600
O720        O  0.33673038  0.75035017  0.99825441    -0.74200
O721        O  0.22829483  0.85556821  0.98719177    -0.73600
O722        O  0.27366794  0.81364932  0.57947047    -0.74400
O723        O  0.27367226  0.81368412  0.96387902    -0.73800
O724        O  0.22812458  0.85529989  0.55624511    -0.74200
O725        O  0.16320379  0.79353274  0.52173763    -0.74100
O726        O  0.16315443  0.70842662  0.52173092    -0.73900
C727        C  0.24989952  0.64940026  0.57670256     0.77900
C728        C  0.35423922  0.74972891  0.52159573     0.78300
C729        C  0.25060354  0.64922390  0.96717706     0.77300
C730        C  0.25110475  0.85157381  0.96638143     0.77700
C731        C  0.25094487  0.85139584  0.57701062     0.78800
C732        C  0.14559946  0.75083406  0.52173863     0.77900
C733        C  0.39723410  0.54290441  0.89810780    -0.08400
C734        C  0.41645262  0.99584271  0.90039862     0.07800
C735        C  0.39383722  0.95132685  0.89592214    -0.02200
C736        C  0.35362074  0.95393687  0.89765631    -0.06600
C737        C  0.33435243  0.00078208  0.90106803     0.06900
C738        C  0.35690795  0.54563389  0.89715809    -0.01700
Br739      Br  0.33582022  0.61005285  0.88558362    -0.01400
H740        H  0.41368149  0.57784767  0.89563076     0.10800
H741        H  0.33727996  0.91913919  0.89445690     0.08800
Br742      Br  0.41427449  0.88846425  0.88142385    -0.01800
C743        C  0.10407161  0.50714360  0.92944127    -0.08400
C744        C  0.08429196  0.99292626  0.90483356     0.07800
C745        C  0.10632247  0.96669653  0.88440190    -0.02200
C746        C  0.14658759  0.97018426  0.88484044    -0.06600
C747        C  0.16636648  0.99550385  0.90660479     0.06900
C748        C  0.14439180  0.50628090  0.93100857    -0.01700
Br749      Br  0.16562277  0.50844247  0.96830176    -0.01400
H750        H  0.08811291  0.51504220  0.94839903     0.10800
H751        H  0.16252112  0.94973562  0.86896515     0.08800
Br752      Br  0.08478856  0.91702881  0.85903917    -0.01800
C753        C  0.26704533  0.55077916  0.75646013    -0.08400
C754        C  0.24686278  0.01194175  0.74231438     0.07800
C755        C  0.22649454  0.97496033  0.75802281    -0.02200
C756        C  0.22687087  0.97699910  0.78732673    -0.06600
C757        C  0.24744064  0.51533263  0.80149085     0.06900
C758        C  0.26710365  0.55302049  0.78585620    -0.01700
Br759      Br  0.29194433  0.60994394  0.80372679    -0.01400
H760        H  0.28224488  0.57979881  0.74452450     0.10800
H761        H  0.21182065  0.94779513  0.79922878     0.08800
Br762      Br  0.20002980  0.91880894  0.74059129    -0.01800
C763        C  0.35283277  0.95376682  0.64618859    -0.08400
C764        C  0.33358002  0.00052329  0.64234733     0.07800
C765        C  0.35610191  0.54546372  0.64580892    -0.02200
C766        C  0.39640455  0.54273460  0.64462364    -0.06600
C767        C  0.41564959  0.99560318  0.64273940     0.06900
C768        C  0.39307628  0.95126242  0.64785908    -0.01700
Br769      Br  0.41373917  0.88930163  0.66333109    -0.01400
H770        H  0.33644546  0.91907842  0.64971406     0.10800
H771        H  0.41287205  0.57772748  0.64674760     0.08800
Br772      Br  0.33519892  0.60985644  0.65757332    -0.01400
C773        C  0.10354964  0.50667835  0.61366840    -0.08400
C774        C  0.08344873  0.99242587  0.63813828     0.07800
C775        C  0.10516879  0.96626064  0.65874056    -0.02200
C776        C  0.14545174  0.96977597  0.65858613    -0.06600
C777        C  0.16557637  0.99502831  0.63690236     0.06900
C778        C  0.14389238  0.50583878  0.61237968    -0.01700
Br779      Br  0.16576584  0.50836326  0.57527528    -0.01400
H780        H  0.08791059  0.51450433  0.59458728     0.10800
H781        H  0.16110185  0.94924686  0.67455772     0.08800
Br782      Br  0.08309049  0.91672203  0.68398926    -0.01800
C783        C  0.01330915  0.56019249  0.78648369    -0.08400
C784        C  0.50178935  0.01581532  0.80081308     0.07800
C785        C  0.49065086  0.97231802  0.78541552    -0.02200
C786        C  0.49016626  0.97401498  0.75612987    -0.06600
C787        C  0.50114590  0.51847903  0.74174392     0.06900
C788        C  0.01294739  0.56180178  0.75704786    -0.01700
Br789      Br  0.02687533  0.62418248  0.73847413    -0.01400
H790        H  0.02196623  0.59372665  0.79825899     0.10800
H791        H  0.48168483  0.94033388  0.74440428     0.08800
Br792      Br  0.47783321  0.90908484  0.80360413    -0.01800
C793        C  0.53914940  0.49542092  0.13897886     0.30700
C794        C  0.95984328  0.49507384  0.14032124     0.30700
C795        C  0.52025490  0.50463638  0.16786579    -0.05500
C796        C  0.51922874  0.03737043  0.12141084    -0.06300
C797        C  0.51932769  0.44656278  0.12829941    -0.06100
C798        C  0.98020620  0.50307232  0.16844961    -0.05500
C799        C  0.97892213  0.03711203  0.12195283    -0.06200
C800        C  0.97902308  0.44633498  0.12864705    -0.06100
C801        C  0.96876461  0.51068418  0.19575776    -0.31500
N802        N  0.00061832  0.01835373  0.21166710     0.15000
C803        C  0.53209008  0.51581134  0.19487203    -0.31500
H804        H  0.56146630  0.01976074  0.20210977     0.16900
C805        C  0.96698252  0.07745314  0.10533557    -0.30500
N806        N  0.49856128  0.10207129  0.09523039     0.13700
C807        C  0.53041351  0.07833595  0.10498379    -0.30500
C808        C  0.96750103  0.40941810  0.10953293    -0.30800
N809        N  0.49905295  0.38640678  0.09873144     0.14200
H810        H  0.93841344  0.40259377  0.10232531     0.16800
C811        C  0.53070220  0.40995707  0.10920700    -0.30800
H812        H  0.55981953  0.40330289  0.10205161     0.16800
H813        H  0.55947670  0.09096057  0.10063223     0.16800
H814        H  0.93959174  0.00966683  0.20364112     0.16900
H815        H  0.93765529  0.08754768  0.10029478     0.16800
C816        C  0.70984159  0.49907834  0.13835218     0.30700
C817        C  0.78929756  0.50061385  0.13999576     0.30700
C818        C  0.72850433  0.00310969  0.16774212    -0.05500
C819        C  0.73019363  0.45267750  0.12564941    -0.06300
C820        C  0.72974726  0.04433948  0.12330166    -0.06100
C821        C  0.76866486  0.00340075  0.16841425    -0.05500
C822        C  0.77035485  0.45314418  0.12631320    -0.06200
C823        C  0.77004126  0.04420626  0.12328556    -0.06100
C824        C  0.77974197  0.50758445  0.19605660    -0.31500
N825        N  0.74761479  0.51002281  0.21217997     0.15000
C826        C  0.71632900  0.50874162  0.19516431    -0.31500
H827        H  0.68698307  0.51218029  0.20245546     0.16900
C828        C  0.78231787  0.41421394  0.10873612    -0.30500
N829        N  0.75079817  0.39034657  0.09808837     0.13700
C830        C  0.71893040  0.41374921  0.10802885    -0.30500
C831        C  0.78174407  0.08382350  0.10603439    -0.30800
N832        N  0.75015549  0.10920903  0.09707008     0.14200
H833        H  0.81091513  0.09246267  0.09956448     0.16800
C834        C  0.71842405  0.08611659  0.10779600    -0.30800
H835        H  0.68923179  0.09825687  0.10383826     0.16800
H836        H  0.68979222  0.40491467  0.10159227     0.16800
H837        H  0.80894961  0.50830636  0.20391877     0.16900
H838        H  0.81156099  0.40640732  0.10230156     0.16800
C839        C  0.54005859  0.49583144  0.40384318     0.30700
C840        C  0.96071993  0.49538304  0.40267720     0.30700
C841        C  0.52110438  0.00360408  0.37484360    -0.05500
C842        C  0.52022938  0.44751940  0.41529973    -0.06300
C843        C  0.52006589  0.03859896  0.42083039    -0.06100
C844        C  0.98102681  0.00200631  0.37439020    -0.05500
C845        C  0.97996032  0.44727797  0.41503801    -0.06200
C846        C  0.97976640  0.03826498  0.42038119    -0.06100
C847        C  0.96953109  0.50841304  0.34703361    -0.31500
N848        N  0.00135108  0.51481012  0.33089582     0.15000
C849        C  0.53287148  0.51362627  0.34764166    -0.31500
H850        H  0.56217264  0.51802906  0.34028600     0.16900
C851        C  0.96843756  0.41037332  0.43417218    -0.30500
N852        N  0.99999186  0.38731315  0.44488817     0.13700
C853        C  0.53167272  0.41080469  0.43431709    -0.30500
C854        C  0.96779092  0.07867734  0.43692363    -0.30800
N855        N  0.99933058  0.10344534  0.44691499     0.14200
H856        H  0.93845394  0.08846105  0.44217163     0.16800
C857        C  0.53121184  0.07969586  0.43714893    -0.30800
H858        H  0.56028285  0.09209391  0.44162313     0.16800
H859        H  0.56081752  0.40388400  0.44126705     0.16800
H860        H  0.94027979  0.50758700  0.33930004     0.16900
H861        H  0.93933962  0.40340888  0.44138016     0.16800
C862        C  0.71067463  0.49952012  0.40527787     0.30700
C863        C  0.79011832  0.50089726  0.40355472     0.30700
C864        C  0.72935092  0.50479487  0.37592894    -0.05500
C865        C  0.73059091  0.04404954  0.42083348    -0.06300
C866        C  0.73085160  0.45253339  0.41738365    -0.06100
C867        C  0.76949588  0.50513344  0.37521841    -0.05500
C868        C  0.77089545  0.04389016  0.42077600    -0.06200
C869        C  0.77103445  0.45286805  0.41670042    -0.06100
C870        C  0.78061281  0.51069590  0.34763118    -0.31500
N871        N  0.74846909  0.01459573  0.33162261     0.15000
C872        C  0.71719293  0.51137662  0.34858747    -0.31500
H873        H  0.68777368  0.01396360  0.34128788     0.16900
C874        C  0.78262669  0.08362524  0.43788897    -0.30500
N875        N  0.75099345  0.10887040  0.44696026     0.13700
C876        C  0.71927485  0.08577970  0.43632256    -0.30500
C877        C  0.78277729  0.41422292  0.43458573    -0.30800
N878        N  0.75116652  0.39052318  0.44526956     0.14200
H879        H  0.81192920  0.40661306  0.44125931     0.16800
C880        C  0.71942450  0.41396658  0.43523591    -0.30800
H881        H  0.69026166  0.40552515  0.44181776     0.16800
H882        H  0.69009839  0.09813618  0.44016477     0.16800
H883        H  0.80976848  0.01106410  0.33972736     0.16900
H884        H  0.81184173  0.09260820  0.44406400     0.16800
Zn885      Zn  0.53062525  0.30998234  0.02174781     1.49700
Zn886      Zn  0.96826025  0.24633855  0.48728111     1.49400
Zn887      Zn  0.53175900  0.18674012  0.02137106     1.49100
Zn888      Zn  0.96802825  0.24589951  0.05575723     1.49500
O889        O  0.99948202  0.24733982  0.02153476    -1.83400
O890        O  0.52176360  0.35326739  0.48726060    -0.74000
O891        O  0.97595542  0.18141944  0.46415856    -0.73800
O892        O  0.58664705  0.20726991  0.02154194    -0.73400
O893        O  0.97775591  0.30958511  0.46326569    -0.74000
O894        O  0.58604727  0.29240128  0.02187634    -0.73600
O895        O  0.52306209  0.14285716  0.48722026    -0.74200
O896        O  0.97541597  0.18047902  0.07846141    -0.73600
O897        O  0.91332193  0.24787895  0.49812914    -0.74400
O898        O  0.52258208  0.14225439  0.05521121    -0.73800
O899        O  0.91326324  0.24769593  0.04491246    -0.74200
O900        O  0.97710911  0.30875581  0.08011612    -0.74100
O901        O  0.52110016  0.35292647  0.05627852    -0.73900
C902        C  0.99980317  0.34837108  0.46606918     0.77900
C903        C  0.99944519  0.14449182  0.46687232     0.78300
C904        C  0.60391466  0.25019243  0.02172920     0.77300
C905        C  0.99882182  0.14351551  0.07551944     0.77700
C906        C  0.89580599  0.24842865  0.02153380     0.78800
C907        C  0.99900885  0.34772235  0.07742413     0.77900
Zn908      Zn  0.71809953  0.18966939  0.02186484     1.49700
Zn909      Zn  0.78183370  0.25048617  0.05570354     1.49400
Zn910      Zn  0.78187568  0.25066603  0.48771707     1.49100
Zn911      Zn  0.71870553  0.31242936  0.02170652     1.49500
O912        O  0.75019111  0.25093032  0.02174704    -1.83400
O913        O  0.72673121  0.14631895  0.05614253    -0.74000
O914        O  0.83673462  0.24991128  0.04497901    -0.73800
O915        O  0.77350860  0.18699039  0.46435783    -0.73400
O916        O  0.77313129  0.18691488  0.07927002    -0.74000
O917        O  0.72740031  0.14611058  0.48779036    -0.73600
O918        O  0.83673410  0.25032561  0.49824782    -0.74200
O919        O  0.72830403  0.35556699  0.48718571    -0.73600
O920        O  0.77366450  0.31365864  0.07946709    -0.74400
O921        O  0.77368763  0.31368437  0.46387861    -0.73800
O922        O  0.72811631  0.35529952  0.05624143    -0.74200
O923        O  0.66320630  0.29352224  0.02172963    -0.74100
O924        O  0.66316104  0.20841606  0.02174377    -0.73900
C925        C  0.74992152  0.14940132  0.07670387     0.77900
C926        C  0.85424265  0.24972076  0.02158943     0.78300
C927        C  0.75058542  0.14922789  0.46717336     0.77300
C928        C  0.75112039  0.35157443  0.46637879     0.77700
C929        C  0.75093576  0.35139964  0.07700782     0.78800
C930        C  0.64560400  0.25082173  0.02174197     0.77900
C931        C  0.89720326  0.04291033  0.39810354    -0.08400
C932        C  0.91648331  0.49583734  0.40040502     0.07800
C933        C  0.89386931  0.45132141  0.39592733    -0.02200
C934        C  0.85365212  0.45393119  0.39765882    -0.06600
C935        C  0.83438339  0.50077730  0.40106950     0.06900
C936        C  0.85687637  0.04563903  0.39715389    -0.01700
Br937      Br  0.83578486  0.11005331  0.38557327    -0.01400
H938        H  0.91365130  0.07785450  0.39562860     0.10800
H939        H  0.83731187  0.41913336  0.39445899     0.08800
Br940      Br  0.91431404  0.38845975  0.38143344    -0.01800
C941        C  0.60404036  0.00713142  0.42944149    -0.08400
C942        C  0.58432260  0.49293216  0.40483470     0.07800
C943        C  0.60635309  0.46669772  0.38440489    -0.02200
C944        C  0.64661782  0.47018850  0.38484104    -0.06600
C945        C  0.66639733  0.49551097  0.40660354     0.06900
C946        C  0.64436011  0.00627234  0.43100920    -0.01700
Br947      Br  0.66558910  0.00844420  0.46830237    -0.01400
H948        H  0.58808141  0.01502373  0.44840000     0.10800
H949        H  0.66255080  0.44973669  0.36896698     0.08800
Br950      Br  0.58482244  0.41700975  0.35905364    -0.01800
C951        C  0.76707727  0.05072564  0.25646183    -0.08400
C952        C  0.74686466  0.51196403  0.24231300     0.07800
C953        C  0.72654713  0.47493492  0.25802095    -0.02200
C954        C  0.72693391  0.47696120  0.28732526    -0.06600
C955        C  0.74741446  0.01533545  0.30149245     0.06900
C956        C  0.76712378  0.05298080  0.28585730    -0.01700
Br957      Br  0.79201267  0.10987233  0.30372341    -0.01400
H958        H  0.78231198  0.07971362  0.24452629     0.10800
H959        H  0.71191989  0.44772441  0.29922741     0.08800
Br960      Br  0.70014281  0.41874143  0.24058263    -0.01800
C961        C  0.85281237  0.45377546  0.14618902    -0.08400
C962        C  0.83355806  0.50052940  0.14234330     0.07800
C963        C  0.85612598  0.04545550  0.14581625    -0.02200
C964        C  0.89642878  0.04272337  0.14463474    -0.06600
C965        C  0.91562668  0.49561489  0.14273207     0.06900
C966        C  0.89305579  0.45127549  0.14785979    -0.01700
Br967      Br  0.91372259  0.38933026  0.16334726    -0.01400
H968        H  0.83642638  0.41908733  0.14971899     0.10800
H969        H  0.91289689  0.07771360  0.14676194     0.08800
Br970      Br  0.83522631  0.10985347  0.15757469    -0.01400
C971        C  0.60357143  0.00668170  0.11366728    -0.08400
C972        C  0.58342563  0.49243564  0.13814100     0.07800
C973        C  0.60514473  0.46628173  0.15874852    -0.02200
C974        C  0.64542809  0.46979233  0.15859306    -0.06600
C975        C  0.66555451  0.49502868  0.13690474     0.06900
C976        C  0.64391425  0.00584507  0.11237838    -0.01700
Br977      Br  0.66578823  0.00837136  0.07527421    -0.01400
H978        H  0.58793210  0.01451279  0.09458735     0.10800
H979        H  0.66107743  0.44927035  0.17456870     0.08800
Br980      Br  0.58306458  0.41676475  0.18400939    -0.01800
C981        C  0.51332076  0.06021522  0.28648026    -0.08400
C982        C  0.00179428  0.51577747  0.30080972     0.07800
C983        C  0.99064541  0.47229318  0.28540434    -0.02200
C984        C  0.99014661  0.47401276  0.25611902    -0.06600
C985        C  0.00117711  0.01846883  0.24174738     0.06900
C986        C  0.51297970  0.06179985  0.25704410    -0.01700
Br987      Br  0.52694478  0.12415632  0.23845985    -0.01400
H988        H  0.52197799  0.09375612  0.29825052     0.10800
H989        H  0.98166264  0.44033961  0.24438780     0.08800
Br990      Br  0.97782608  0.40904815  0.30357904    -0.01800
C991        C  0.53914950  0.49542092  0.63897889     0.30700
C992        C  0.95984332  0.49507387  0.64032125     0.30700
C993        C  0.52025500  0.50463632  0.66786582    -0.05500
C994        C  0.51922871  0.03737039  0.62141088    -0.06300
C995        C  0.51932781  0.44656284  0.62829938    -0.06100
C996        C  0.98020623  0.50307239  0.66844961    -0.05500
C997        C  0.97892227  0.03711206  0.62195286    -0.06200
C998        C  0.97902310  0.44633502  0.62864705    -0.06100
C999        C  0.96876454  0.51068432  0.69575777    -0.31500
N1000       N  0.00061839  0.01835352  0.71166715     0.15000
C1001       C  0.53209014  0.51581136  0.69487208    -0.31500
H1002       H  0.56146719  0.01976064  0.70210999     0.16900
C1003       C  0.96698270  0.07745320  0.60533562    -0.30500
N1004       N  0.49856131  0.10207130  0.59523042     0.13700
C1005       C  0.53041350  0.07833586  0.60498382    -0.30500
C1006       C  0.96750092  0.40941812  0.60953294    -0.30800
N1007       N  0.49905309  0.38640675  0.59873148     0.14200
H1008       H  0.93841389  0.40259396  0.60232547     0.16800
C1009       C  0.53070242  0.40995712  0.60920699    -0.30800
H1010       H  0.55981938  0.40330312  0.60205164     0.16800
H1011       H  0.55947668  0.09096042  0.60063226     0.16800
H1012       H  0.93959167  0.00966658  0.70364114     0.16900
H1013       H  0.93765546  0.08754780  0.60029486     0.16800
C1014       C  0.70984167  0.49907816  0.63835213     0.30700
C1015       C  0.78929759  0.50061374  0.63999581     0.30700
C1016       C  0.72850437  0.00310960  0.66774213    -0.05500
C1017       C  0.73019375  0.45267731  0.62564941    -0.06300
C1018       C  0.72974740  0.04433933  0.62330165    -0.06100
C1019       C  0.76866490  0.00340074  0.66841430    -0.05500
C1020       C  0.77035497  0.45314399  0.62631325    -0.06200
C1021       C  0.77004141  0.04420606  0.62328554    -0.06100
C1022       C  0.77974179  0.50758426  0.69605659    -0.31500
N1023       N  0.74761473  0.51002264  0.71217995     0.15000
C1024       C  0.71632878  0.50874164  0.69516431    -0.31500
H1025       H  0.68698381  0.51218036  0.70245523     0.16900
C1026       C  0.78231790  0.41421374  0.60873620    -0.30500
N1027       N  0.75079832  0.39034639  0.59808838     0.13700
C1028       C  0.71893056  0.41374922  0.60802874    -0.30500
C1029       C  0.78174426  0.08382319  0.60603429    -0.30800
N1030       N  0.75015562  0.10920872  0.59706997     0.14200
H1031       H  0.81091510  0.09246231  0.59956442     0.16800
C1032       C  0.71842435  0.08611635  0.60779599    -0.30800
H1033       H  0.68923115  0.09825705  0.60383818     0.16800
H1034       H  0.68979229  0.40491480  0.60159205     0.16800
H1035       H  0.80895007  0.50830604  0.70391895     0.16900
H1036       H  0.81156169  0.40640684  0.60230155     0.16800
C1037       C  0.54005837  0.49583144  0.90384318     0.30700
C1038       C  0.96071978  0.49538304  0.90267717     0.30700
C1039       C  0.52110422  0.00360395  0.87484361    -0.05500
C1040       C  0.52022914  0.44751938  0.91529968    -0.06300
C1041       C  0.52006575  0.03859884  0.92083044    -0.06100
C1042       C  0.98102669  0.00200619  0.87439018    -0.05500
C1043       C  0.97996010  0.44727793  0.91503792    -0.06200
C1044       C  0.97976624  0.03826483  0.92038127    -0.06100
C1045       C  0.96953085  0.50841319  0.84703360    -0.31500
N1046       N  0.00135096  0.51481028  0.83089584     0.15000
C1047       C  0.53287136  0.51362640  0.84764172    -0.31500
H1048       H  0.56217253  0.51802915  0.84028608     0.16900
C1049       C  0.96843744  0.41037331  0.93417201    -0.30500
N1050       N  0.99999155  0.38731301  0.94488803     0.13700
C1051       C  0.53167227  0.41080466  0.93431695    -0.30500
C1052       C  0.96779071  0.07867727  0.93692374    -0.30800
N1053       N  0.99933047  0.10344529  0.94691507     0.14200
H1054       H  0.93845416  0.08846095  0.94217163     0.16800
C1055       C  0.53121170  0.07969588  0.93714895    -0.30800
H1056       H  0.56028251  0.09209389  0.94162311     0.16800
H1057       H  0.56081833  0.40388373  0.94126721     0.16800
H1058       H  0.94028015  0.50758713  0.83930019     0.16900
H1059       H  0.93933843  0.40340865  0.94138021     0.16800
C1060       C  0.71067445  0.49952014  0.90527790     0.30700
C1061       C  0.79011815  0.50089728  0.90355475     0.30700
C1062       C  0.72935073  0.50479501  0.87592897    -0.05500
C1063       C  0.73059074  0.04404952  0.92083357    -0.06300
C1064       C  0.73085141  0.45253337  0.91738366    -0.06100
C1065       C  0.76949567  0.50513348  0.87521844    -0.05500
C1066       C  0.77089527  0.04389000  0.92077615    -0.06200
C1067       C  0.77103426  0.45286807  0.91670045    -0.06100
C1068       C  0.78061262  0.51069570  0.84763120    -0.31500
N1069       N  0.74846896  0.01459588  0.83162265     0.15000
C1070       C  0.71719263  0.51137673  0.84858744    -0.31500
H1071       H  0.68777422  0.01396381  0.84128811     0.16900
C1072       C  0.78262660  0.08362517  0.93788908    -0.30500
N1073       N  0.75099331  0.10887048  0.94696029     0.13700
C1074       C  0.71927475  0.08577979  0.93632258    -0.30500
C1075       C  0.78277724  0.41422294  0.93458579    -0.30800
N1076       N  0.75116630  0.39052314  0.94526954     0.14200
H1077       H  0.81192842  0.40661331  0.94125924     0.16800
C1078       C  0.71942447  0.41396662  0.93523591    -0.30800
H1079       H  0.69026082  0.40552496  0.94181794     0.16800
H1080       H  0.69009811  0.09813640  0.94016481     0.16800
H1081       H  0.80976835  0.01106404  0.83972740     0.16900
H1082       H  0.81184125  0.09260796  0.94406399     0.16800
Zn1083     Zn  0.53062543  0.30998242  0.52174785     1.49700
Zn1084     Zn  0.96825990  0.24633840  0.98728111     1.49400
Zn1085     Zn  0.53175918  0.18673994  0.52137109     1.49100
Zn1086     Zn  0.96802842  0.24589934  0.55575726     1.49500
O1087       O  0.99948225  0.24733969  0.52153478    -1.83400
O1088       O  0.52176324  0.35326729  0.98726056    -0.74000
O1089       O  0.97595532  0.18141947  0.96415857    -0.73800
O1090       O  0.58664724  0.20726985  0.52154194    -0.73400
O1091       O  0.97775549  0.30958507  0.96326559    -0.74000
O1092       O  0.58604745  0.29240122  0.52187655    -0.73600
O1093       O  0.52306198  0.14285728  0.98722026    -0.74200
O1094       O  0.97541613  0.18047908  0.57846150    -0.73600
O1095       O  0.91332159  0.24787867  0.99812904    -0.74400
O1096       O  0.52258226  0.14225438  0.55521128    -0.73800
O1097       O  0.91326329  0.24769571  0.54491255    -0.74200
O1098       O  0.97710927  0.30875580  0.58011611    -0.74100
O1099       O  0.52110034  0.35292659  0.55627856    -0.73900
C1100       C  0.99980288  0.34837094  0.96606903     0.77900
C1101       C  0.99944508  0.14449190  0.96687234     0.78300
C1102       C  0.60391484  0.25019236  0.52172929     0.77300
C1103       C  0.99882196  0.14351553  0.57551948     0.77700
C1104       C  0.89580618  0.24842866  0.52153383     0.78800
C1105       C  0.99900894  0.34772240  0.57742415     0.77900
Zn1106     Zn  0.71809972  0.18966919  0.52186471     1.49700
Zn1107     Zn  0.78183389  0.25048619  0.55570357     1.49400
Zn1108     Zn  0.78187536  0.25066616  0.98771710     1.49100
Zn1109     Zn  0.71870573  0.31242913  0.52170654     1.49500
O1110       O  0.75019133  0.25093012  0.52174703    -1.83400
O1111       O  0.72673146  0.14631874  0.55614240    -0.74000
O1112       O  0.83673475  0.24991108  0.54497894    -0.73800
O1113       O  0.77350844  0.18699053  0.96435785    -0.73400
O1114       O  0.77313144  0.18691470  0.57927002    -0.74000
O1115       O  0.72740018  0.14611074  0.98779041    -0.73600
O1116       O  0.83673388  0.25032576  0.99824789    -0.74200
O1117       O  0.72830385  0.35556714  0.98718571    -0.73600
O1118       O  0.77366470  0.31365848  0.57946714    -0.74400
O1119       O  0.77368731  0.31368430  0.96387860    -0.73800
O1120       O  0.72811650  0.35529927  0.55624145    -0.74200
O1121       O  0.66320649  0.29352218  0.52172967    -0.74100
O1122       O  0.66316125  0.20841603  0.52174378    -0.73900
C1123       C  0.74992171  0.14940111  0.57670381     0.77900
C1124       C  0.85424283  0.24972061  0.52158938     0.78300
C1125       C  0.75058528  0.14922802  0.96717338     0.77300
C1126       C  0.75112015  0.35157440  0.96637875     0.77700
C1127       C  0.75093592  0.35139943  0.57700785     0.78800
C1128       C  0.64560419  0.25082170  0.52174201     0.77900
C1129       C  0.89720315  0.04291035  0.89810358    -0.08400
C1130       C  0.91648316  0.49583733  0.90040500     0.07800
C1131       C  0.89386915  0.45132145  0.89592719    -0.02200
C1132       C  0.85365196  0.45393123  0.89765881    -0.06600
C1133       C  0.83438322  0.50077732  0.90106953     0.06900
C1134       C  0.85687624  0.04563909  0.89715394    -0.01700
Br1135     Br  0.83578477  0.11005347  0.88557351    -0.01400
H1136       H  0.91365119  0.07785438  0.89562867     0.10800
H1137       H  0.83731159  0.41913321  0.89445897     0.08800
Br1138     Br  0.91431394  0.38845992  0.88143306    -0.01800
C1139       C  0.60404025  0.00713116  0.92944149    -0.08400
C1140       C  0.58432242  0.49293224  0.90483470     0.07800
C1141       C  0.60635297  0.46669796  0.88440485    -0.02200
C1142       C  0.64661770  0.47018866  0.88484105    -0.06600
C1143       C  0.66639717  0.49551108  0.90660357     0.06900
C1144       C  0.64435999  0.00627211  0.93100922    -0.01700
Br1145     Br  0.66558900  0.00844433  0.96830240    -0.01400
H1146       H  0.58808128  0.01502356  0.94839999     0.10800
H1147       H  0.66255076  0.44973673  0.86896699     0.08800
Br1148     Br  0.58482234  0.41700988  0.85905366    -0.01800
C1149       C  0.76707776  0.05072515  0.75646187    -0.08400
C1150       C  0.74686458  0.51196390  0.74231296     0.07800
C1151       C  0.72654643  0.47493541  0.75802091    -0.02200
C1152       C  0.72693326  0.47696183  0.78732519    -0.06600
C1153       C  0.74741430  0.01533565  0.80149249     0.06900
C1154       C  0.76712427  0.05298044  0.78585734    -0.01700
Br1155     Br  0.79201428  0.10987129  0.80372343    -0.01400
H1156       H  0.78231295  0.07971260  0.74452634     0.10800
H1157       H  0.71191848  0.44772499  0.79922752     0.08800
Br1158     Br  0.70014101  0.41874272  0.74058267    -0.01800
C1159       C  0.85281245  0.45377543  0.64618918    -0.08400
C1160       C  0.83355811  0.50052935  0.64234339     0.07800
C1161       C  0.85612607  0.04545535  0.64581628    -0.02200
C1162       C  0.89642880  0.04272315  0.64463475    -0.06600
C1163       C  0.91562673  0.49561494  0.64273209     0.06900
C1164       C  0.89305589  0.45127553  0.64785986    -0.01700
Br1165     Br  0.91372279  0.38933039  0.66334730    -0.01400
H1166       H  0.83642659  0.41908750  0.64971915     0.10800
H1167       H  0.91289726  0.07771414  0.64676197     0.08800
Br1168     Br  0.83522648  0.10985326  0.65757472    -0.01400
C1169       C  0.60357143  0.00668158  0.61366729    -0.08400
C1170       C  0.58342575  0.49243572  0.63814104     0.07800
C1171       C  0.60514484  0.46628166  0.65874850    -0.02200
C1172       C  0.64542822  0.46979226  0.65859308    -0.06600
C1173       C  0.66555461  0.49502846  0.63690468     0.06900
C1174       C  0.64391429  0.00584512  0.61237843    -0.01700
Br1175     Br  0.66578815  0.00837114  0.57527423    -0.01400
H1176       H  0.58793221  0.01451252  0.59458756     0.10800
H1177       H  0.66107748  0.44927038  0.67456862     0.08800
Br1178     Br  0.58306451  0.41676452  0.68400922    -0.01800
C1179       C  0.51332073  0.06021539  0.78648031    -0.08400
C1180       C  0.00179420  0.51577752  0.80080975     0.07800
C1181       C  0.99064561  0.47229306  0.78540440    -0.02200
C1182       C  0.99014683  0.47401257  0.75611907    -0.06600
C1183       C  0.00117719  0.01846867  0.74174742     0.06900
C1184       C  0.51297975  0.06179973  0.75704412    -0.01700
Br1185     Br  0.52694470  0.12415612  0.73845987    -0.01400
H1186       H  0.52197773  0.09375579  0.79825033     0.10800
H1187       H  0.98166293  0.44033932  0.74438784     0.08800
Br1188     Br  0.97782657  0.40904794  0.80357927    -0.01800
C1189       C  0.53917282  0.99541053  0.13897908     0.30700
C1190       C  0.95986648  0.99506275  0.14032698     0.30700
C1191       C  0.52028225  0.00461431  0.16786836    -0.05500
C1192       C  0.51920788  0.53737463  0.12140468    -0.06300
C1193       C  0.51934985  0.94655643  0.12829627    -0.06100
C1194       C  0.98023322  0.00305200  0.16845452    -0.05500
C1195       C  0.97890123  0.53711772  0.12194417    -0.06200
C1196       C  0.97904505  0.94632890  0.12864693    -0.06100
C1197       C  0.96879489  0.01066208  0.19576322    -0.31500
N1198       N  0.00058586  0.51838095  0.21166334     0.15000
C1199       C  0.53212128  0.01578155  0.19487466    -0.31500
H1200       H  0.56143451  0.51979279  0.20210877     0.16900
C1201       C  0.96696478  0.57745837  0.10532494    -0.30500
N1202       N  0.49854564  0.60207382  0.09522081     0.13700
C1203       C  0.53039607  0.57833747  0.10497676    -0.30500
C1204       C  0.96752030  0.90942168  0.10952904    -0.30800
N1205       N  0.49907017  0.88641358  0.09872343     0.14200
H1206       H  0.93843126  0.90260093  0.10232207     0.16800
C1207       C  0.53072173  0.90995793  0.10919903    -0.30800
H1208       H  0.55983705  0.90330460  0.10204135     0.16800
H1209       H  0.55945906  0.59096060  0.10062791     0.16800
H1210       H  0.93956047  0.50968186  0.20363457     0.16900
H1211       H  0.93763852  0.58755598  0.10028344     0.16800
C1212       C  0.70986286  0.99907972  0.13835054     0.30700
C1213       C  0.78931898  0.00061064  0.13999786     0.30700
C1214       C  0.72848608  0.50311615  0.16774350    -0.05500
C1215       C  0.73021404  0.95268131  0.12564662    -0.06300
C1216       C  0.72972376  0.54433644  0.12329966    -0.06100
C1217       C  0.76864694  0.50341074  0.16841242    -0.05500
C1218       C  0.77037508  0.95314475  0.12631097    -0.06200
C1219       C  0.77001759  0.54420436  0.12328198    -0.06100
C1220       C  0.77975395  0.00756004  0.19606092    -0.31500
N1221       N  0.74762241  0.00999329  0.21218123     0.15000
C1222       C  0.71634111  0.00872646  0.19516135    -0.31500
H1223       H  0.68699492  0.01217280  0.20244766     0.16900
C1224       C  0.78233465  0.91420943  0.10873604    -0.30500
N1225       N  0.75081341  0.89034386  0.09809001     0.13700
C1226       C  0.71894666  0.91375077  0.10802944    -0.30500
C1227       C  0.78171945  0.58382126  0.10603106    -0.30800
N1228       N  0.75013068  0.60920608  0.09706735     0.14200
H1229       H  0.81089066  0.59246220  0.09956156     0.16800
C1230       C  0.71839929  0.58611356  0.10779382    -0.30800
H1231       H  0.68920794  0.59825398  0.10383733     0.16800
H1232       H  0.68981247  0.90491861  0.10159563     0.16800
H1233       H  0.80895776  0.00827781  0.20392584     0.16900
H1234       H  0.81158044  0.90639603  0.10230139     0.16800
C1235       C  0.54002850  0.99582941  0.40384156     0.30700
C1236       C  0.96068997  0.99538717  0.40267292     0.30700
C1237       C  0.52113099  0.50357662  0.37484242    -0.05500
C1238       C  0.52019819  0.94750773  0.41528261    -0.06300
C1239       C  0.52009537  0.53861594  0.42082154    -0.06100
C1240       C  0.98105337  0.50197498  0.37439193    -0.05500
C1241       C  0.97992837  0.94726838  0.41502095    -0.06200
C1242       C  0.97979603  0.53827704  0.42037329    -0.06100
C1243       C  0.96951045  0.00846350  0.34703188    -0.31500
N1244       N  0.00133456  0.01486735  0.33089867     0.15000
C1245       C  0.53285131  0.01366906  0.34764698    -0.31500
H1246       H  0.56215430  0.01806398  0.34029455     0.16900
C1247       C  0.96840722  0.91036952  0.43415982    -0.30500
N1248       N  0.99996171  0.88730931  0.44487544     0.13700
C1249       C  0.53164119  0.91079742  0.43430187    -0.30500
C1250       C  0.96781693  0.57868688  0.43691573    -0.30800
N1251       N  0.99935360  0.60346173  0.44690591     0.14200
H1252       H  0.93847968  0.58845991  0.44216803     0.16800
C1253       C  0.53123755  0.57971589  0.43714031    -0.30800
H1254       H  0.56030788  0.59211309  0.44161831     0.16800
H1255       H  0.56078642  0.90388121  0.44125387     0.16800
H1256       H  0.94026104  0.00763536  0.33929428     0.16900
H1257       H  0.93930968  0.90341197  0.44137247     0.16800
C1258       C  0.71064408  0.99951703  0.40528015     0.30700
C1259       C  0.79008786  0.00089842  0.40355488     0.30700
C1260       C  0.72931976  0.00478855  0.37593050    -0.05500
C1261       C  0.73062179  0.54404817  0.42083366    -0.06300
C1262       C  0.73082373  0.95253372  0.41738878    -0.06100
C1263       C  0.76946439  0.00512735  0.37521966    -0.05500
C1264       C  0.77092608  0.54388717  0.42077861    -0.06200
C1265       C  0.77100648  0.95287132  0.41670407    -0.06100
C1266       C  0.78058207  0.01069170  0.34763341    -0.31500
N1267       N  0.74849861  0.51459445  0.33162078     0.15000
C1268       C  0.71716248  0.01137658  0.34858905    -0.31500
H1269       H  0.68780273  0.51395882  0.34128584     0.16900
C1270       C  0.78265478  0.58362049  0.43789492    -0.30500
N1271       N  0.75101961  0.60886477  0.44696475     0.13700
C1272       C  0.71930347  0.58577660  0.43632251    -0.30500
C1273       C  0.78275347  0.91422517  0.43458698    -0.30800
N1274       N  0.75114493  0.89052207  0.44527197     0.14200
H1275       H  0.81190550  0.90661656  0.44125789     0.16800
C1276       C  0.71940055  0.91396451  0.43524111    -0.30800
H1277       H  0.69023802  0.90551970  0.44182452     0.16800
H1278       H  0.69012619  0.59813423  0.44016134     0.16800
H1279       H  0.80979828  0.51107018  0.33972422     0.16900
H1280       H  0.81186854  0.59260350  0.44407201     0.16800
Zn1281     Zn  0.53061981  0.80999617  0.02173500     1.49700
Zn1282     Zn  0.96825165  0.74633914  0.48727931     1.49400
Zn1283     Zn  0.53175679  0.68675365  0.02136754     1.49100
Zn1284     Zn  0.96802923  0.74591383  0.05575407     1.49500
O1285       O  0.99947839  0.74735146  0.02152944    -1.83400
O1286       O  0.52174506  0.85327456  0.48724706    -0.74000
O1287       O  0.97595842  0.68142121  0.46415609    -0.73800
O1288       O  0.58664210  0.70728614  0.02154525    -0.73400
O1289       O  0.97773262  0.80958468  0.46326097    -0.74000
O1290       O  0.58604333  0.79241774  0.02186134    -0.73600
O1291       O  0.52307743  0.64287659  0.48721289    -0.74200
O1292       O  0.97540972  0.68048970  0.07845612    -0.73600
O1293       O  0.91331540  0.74787299  0.49813299    -0.74400
O1294       O  0.52257155  0.64226004  0.05520389    -0.73800
O1295       O  0.91326221  0.74772162  0.04491634    -0.74200
O1296       O  0.97712395  0.80876396  0.08011169    -0.74100
O1297       O  0.52110228  0.85294188  0.05626506    -0.73900
C1298       C  0.99977805  0.84837329  0.46605954     0.77900
C1299       C  0.99945948  0.64450478  0.46686574     0.78300
C1300       C  0.60391011  0.75020810  0.02172408     0.77300
C1301       C  0.99881077  0.64352151  0.07551190     0.77700
C1302       C  0.89580233  0.74843903  0.02153867     0.78800
C1303       C  0.99902033  0.84773250  0.07741537     0.77900
Zn1304     Zn  0.71809197  0.68967282  0.02186007     1.49700
Zn1305     Zn  0.78182823  0.75047836  0.05570640     1.49400
Zn1306     Zn  0.78187395  0.75067155  0.48772098     1.49100
Zn1307     Zn  0.71870357  0.81243127  0.02171249     1.49500
O1308       O  0.75018680  0.75093032  0.02174923    -1.83400
O1309       O  0.72671062  0.64632272  0.05614012    -0.74000
O1310       O  0.83673080  0.74989905  0.04498531    -0.73800
O1311       O  0.77352717  0.68698704  0.46436521    -0.73400
O1312       O  0.77311375  0.68690876  0.07927007    -0.74000
O1313       O  0.72740751  0.64611127  0.48778779    -0.73600
O1314       O  0.83673058  0.75034999  0.49825437    -0.74200
O1315       O  0.72829486  0.85556808  0.48719171    -0.73600
O1316       O  0.77366796  0.81364949  0.07947046    -0.74400
O1317       O  0.77367231  0.81368405  0.46387898    -0.73800
O1318       O  0.72812449  0.85529984  0.05624512    -0.74200
O1319       O  0.66320353  0.79353285  0.02173762    -0.74100
O1320       O  0.66315430  0.70842669  0.02173089    -0.73900
C1321       C  0.74989934  0.64940053  0.07670267     0.77900
C1322       C  0.85423905  0.74972897  0.02159573     0.78300
C1323       C  0.75060382  0.64922408  0.46717702     0.77300
C1324       C  0.75110483  0.85157374  0.46638139     0.77700
C1325       C  0.75094478  0.85139592  0.07701059     0.78800
C1326       C  0.64559929  0.75083409  0.02173859     0.77900
C1327       C  0.89723420  0.54290432  0.39810776    -0.08400
C1328       C  0.91645276  0.99584271  0.40039859     0.07800
C1329       C  0.89383738  0.95132679  0.39592213    -0.02200
C1330       C  0.85362089  0.95393679  0.39765628    -0.06600
C1331       C  0.83435259  0.00078201  0.40106800     0.06900
C1332       C  0.85690809  0.54563387  0.39715803    -0.01700
Br1333     Br  0.83582021  0.61005270  0.38558339    -0.01400
H1334       H  0.91368186  0.57784822  0.39563066     0.10800
H1335       H  0.83728004  0.91913897  0.39445688     0.08800
Br1336     Br  0.91427476  0.88846411  0.38142403    -0.01800
C1337       C  0.60407174  0.50714357  0.42944126    -0.08400
C1338       C  0.58429210  0.99292650  0.40483358     0.07800
C1339       C  0.60632258  0.96669670  0.38440196    -0.02200
C1340       C  0.64658774  0.97018442  0.38484039    -0.06600
C1341       C  0.66636665  0.99550404  0.40660476     0.06900
C1342       C  0.64439193  0.50628103  0.43100854    -0.01700
Br1343     Br  0.66562303  0.50844271  0.46830171    -0.01400
H1344       H  0.58811303  0.51504221  0.44839906     0.10800
H1345       H  0.66252095  0.94973602  0.36896535     0.08800
Br1346     Br  0.58478855  0.91702901  0.35903933    -0.01800
C1347       C  0.76704474  0.55077988  0.25646016    -0.08400
C1348       C  0.74686297  0.01194167  0.24231435     0.07800
C1349       C  0.72649538  0.97495964  0.25802276    -0.02200
C1350       C  0.72687168  0.97699826  0.28732669    -0.06600
C1351       C  0.74744077  0.51533270  0.30149087     0.06900
C1352       C  0.76710310  0.55302118  0.28585624    -0.01700
Br1353     Br  0.79194287  0.60994529  0.30372695    -0.01400
H1354       H  0.78224376  0.57979997  0.24452450     0.10800
H1355       H  0.71182209  0.94779394  0.29922866     0.08800
Br1356     Br  0.70003177  0.91880763  0.24059105    -0.01800
C1357       C  0.85283266  0.95376684  0.14618855    -0.08400
C1358       C  0.83357999  0.00052344  0.14234729     0.07800
C1359       C  0.85610188  0.54546370  0.14580889    -0.02200
C1360       C  0.89640456  0.54273466  0.14462362    -0.06600
C1361       C  0.91564954  0.99560327  0.14273937     0.06900
C1362       C  0.89307621  0.95126252  0.14785900    -0.01700
Br1363     Br  0.91373890  0.88930148  0.16333085    -0.01400
H1364       H  0.83644570  0.91907918  0.14971389     0.10800
H1365       H  0.91287183  0.57772703  0.14674756     0.08800
Br1366     Br  0.83519890  0.60985632  0.15757329    -0.01400
C1367       C  0.60354962  0.50667829  0.11366839    -0.08400
C1368       C  0.58344870  0.99242603  0.13813825     0.07800
C1369       C  0.60516876  0.96626084  0.15874056    -0.02200
C1370       C  0.64545165  0.96977621  0.15858612    -0.06600
C1371       C  0.66557633  0.99502837  0.13690237     0.06900
C1372       C  0.64389235  0.50583888  0.11237969    -0.01700
Br1373     Br  0.66576582  0.50836313  0.07527527    -0.01400
H1374       H  0.58791046  0.51450435  0.09458714     0.10800
H1375       H  0.66110207  0.94924675  0.17455807     0.08800
Br1376     Br  0.58309047  0.91672226  0.18398923    -0.01800
C1377       C  0.51330918  0.56019238  0.28648367    -0.08400
C1378       C  0.00178936  0.01581523  0.30081306     0.07800
C1379       C  0.99065083  0.97231795  0.28541547    -0.02200
C1380       C  0.99016620  0.97401507  0.25612981    -0.06600
C1381       C  0.00114588  0.51847914  0.24174390     0.06900
C1382       C  0.51294743  0.56180183  0.25704785    -0.01700
Br1383     Br  0.52687559  0.62418268  0.23847430    -0.01400
H1384       H  0.52196643  0.59372662  0.29825906     0.10800
H1385       H  0.98168477  0.94033395  0.24440417     0.08800
Br1386     Br  0.97783320  0.90908471  0.30360409    -0.01800
C1387       C  0.53917283  0.99541047  0.63897913     0.30700
C1388       C  0.95986657  0.99506274  0.64032700     0.30700
C1389       C  0.52028227  0.00461415  0.66786840    -0.05500
C1390       C  0.51920789  0.53737460  0.62140474    -0.06300
C1391       C  0.51934992  0.94655640  0.62829629    -0.06100
C1392       C  0.98023331  0.00305183  0.66845456    -0.05500
C1393       C  0.97890132  0.53711766  0.62194417    -0.06200
C1394       C  0.97904509  0.94632892  0.62864691    -0.06100
C1395       C  0.96879497  0.01066183  0.69576324    -0.31500
N1396       N  0.00058590  0.51838099  0.71166335     0.15000
C1397       C  0.53212113  0.01578129  0.69487466    -0.31500
H1398       H  0.56143439  0.51979276  0.70210884     0.16900
C1399       C  0.96696492  0.57745825  0.60532494    -0.30500
N1400       N  0.49854560  0.60207368  0.59522079     0.13700
C1401       C  0.53039606  0.57833737  0.60497677    -0.30500
C1402       C  0.96752020  0.90942153  0.60952907    -0.30800
N1403       N  0.49907032  0.88641343  0.59872350     0.14200
H1404       H  0.93843186  0.90260088  0.60232226     0.16800
C1405       C  0.53072175  0.90995795  0.60919908    -0.30800
H1406       H  0.55983770  0.90330452  0.60204123     0.16800
H1407       H  0.55945890  0.59096045  0.60062793     0.16800
H1408       H  0.93956089  0.50968194  0.70363445     0.16900
H1409       H  0.93763849  0.58755591  0.60028347     0.16800
C1410       C  0.70986299  0.99907959  0.63835055     0.30700
C1411       C  0.78931909  0.00061050  0.63999791     0.30700
C1412       C  0.72848608  0.50311608  0.66774347    -0.05500
C1413       C  0.73021416  0.95268117  0.62564666    -0.06300
C1414       C  0.72972384  0.54433625  0.62329961    -0.06100
C1415       C  0.76864693  0.50341070  0.66841243    -0.05500
C1416       C  0.77037520  0.95314455  0.62631107    -0.06200
C1417       C  0.77001768  0.54420423  0.62328199    -0.06100
C1418       C  0.77975390  0.00756019  0.69606097    -0.31500
N1419       N  0.74762231  0.00999339  0.71218126     0.15000
C1420       C  0.71634106  0.00872654  0.69516134    -0.31500
H1421       H  0.68699492  0.01217295  0.70244757     0.16900
C1422       C  0.78233490  0.91420910  0.60873618    -0.30500
N1423       N  0.75081349  0.89034369  0.59809007     0.13700
C1424       C  0.71894688  0.91375076  0.60802946    -0.30500
C1425       C  0.78171942  0.58382104  0.60603108    -0.30800
N1426       N  0.75013082  0.60920585  0.59706726     0.14200
H1427       H  0.81089152  0.59246223  0.59956141     0.16800
C1428       C  0.71839940  0.58611338  0.60779377    -0.30800
H1429       H  0.68920797  0.59825396  0.60383732     0.16800
H1430       H  0.68981213  0.90491864  0.60159547     0.16800
H1431       H  0.80895765  0.00827796  0.70392592     0.16900
H1432       H  0.81157990  0.90639579  0.60230174     0.16800
C1433       C  0.54002837  0.99582929  0.90384157     0.30700
C1434       C  0.96068981  0.99538707  0.90267290     0.30700
C1435       C  0.52113081  0.50357672  0.87484245    -0.05500
C1436       C  0.52019805  0.94750759  0.91528257    -0.06300
C1437       C  0.52009512  0.53861587  0.92082154    -0.06100
C1438       C  0.98105324  0.50197510  0.87439193    -0.05500
C1439       C  0.97992819  0.94726820  0.91502085    -0.06200
C1440       C  0.97979588  0.53827692  0.92037331    -0.06100
C1441       C  0.96951031  0.00846357  0.84703185    -0.31500
N1442       N  0.00133451  0.01486747  0.83089869     0.15000
C1443       C  0.53285120  0.01366914  0.84764703    -0.31500
H1444       H  0.56215408  0.01806414  0.84029468     0.16900
C1445       C  0.96840687  0.91036922  0.93415968    -0.30500
N1446       N  0.99996144  0.88730901  0.94487528     0.13700
C1447       C  0.53164100  0.91079717  0.93430174    -0.30500
C1448       C  0.96781677  0.57868667  0.93691578    -0.30800
N1449       N  0.99935347  0.60346153  0.94690599     0.14200
H1450       H  0.93847953  0.58845969  0.94216806     0.16800
C1451       C  0.53123737  0.57971572  0.93714036    -0.30800
H1452       H  0.56030748  0.59211281  0.94161835     0.16800
H1453       H  0.56078655  0.90388095  0.94125385     0.16800
H1454       H  0.94026122  0.00763553  0.83929428     0.16900
H1455       H  0.93930998  0.90341188  0.94137215     0.16800
C1456       C  0.71064393  0.99951701  0.90528017     0.30700
C1457       C  0.79008769  0.00089841  0.90355492     0.30700
C1458       C  0.72931962  0.00478870  0.87593054    -0.05500
C1459       C  0.73062164  0.54404808  0.92083372    -0.06300
C1460       C  0.73082358  0.95253360  0.91738870    -0.06100
C1461       C  0.76946422  0.00512750  0.87521970    -0.05500
C1462       C  0.77092594  0.54388716  0.92077864    -0.06200
C1463       C  0.77100633  0.95287116  0.91670398    -0.06100
C1464       C  0.78058191  0.01069181  0.84763345    -0.31500
N1465       N  0.74849848  0.51459432  0.83162077     0.15000
C1466       C  0.71716221  0.01137678  0.84858907    -0.31500
H1467       H  0.68780329  0.51395899  0.84128600     0.16900
C1468       C  0.78265459  0.58362050  0.93789493    -0.30500
N1469       N  0.75101940  0.60886462  0.94696480     0.13700
C1470       C  0.71930324  0.58577642  0.93632258    -0.30500
C1471       C  0.78275315  0.91422520  0.93458698    -0.30800
N1472       N  0.75114477  0.89052201  0.94527195     0.14200
H1473       H  0.81190605  0.90661653  0.94125821     0.16800
C1474       C  0.71940033  0.91396433  0.93524099    -0.30800
H1475       H  0.69023799  0.90551952  0.94182437     0.16800
H1476       H  0.69012620  0.59813389  0.94016137     0.16800
H1477       H  0.80979806  0.51106980  0.83972429     0.16900
H1478       H  0.81186843  0.59260363  0.94407204     0.16800
Zn1479     Zn  0.53062002  0.80999628  0.52173503     1.49700
Zn1480     Zn  0.96825151  0.74633891  0.98727933     1.49400
Zn1481     Zn  0.53175697  0.68675375  0.52136757     1.49100
Zn1482     Zn  0.96802938  0.74591390  0.55575410     1.49500
O1483       O  0.99947853  0.74735165  0.52152945    -1.83400
O1484       O  0.52174470  0.85327464  0.98724707    -0.74000
O1485       O  0.97595812  0.68142095  0.96415614    -0.73800
O1486       O  0.58664228  0.70728605  0.52154528    -0.73400
O1487       O  0.97773236  0.80958447  0.96326096    -0.74000
O1488       O  0.58604353  0.79241767  0.52186138    -0.73600
O1489       O  0.52307734  0.64287656  0.98721288    -0.74200
O1490       O  0.97540992  0.68048973  0.57845617    -0.73600
O1491       O  0.91331525  0.74787274  0.99813297    -0.74400
O1492       O  0.52257167  0.64226007  0.55520395    -0.73800
O1493       O  0.91326225  0.74772144  0.54491637    -0.74200
O1494       O  0.97712401  0.80876389  0.58011170    -0.74100
O1495       O  0.52110244  0.85294192  0.55626509    -0.73900
C1496       C  0.99977776  0.84837313  0.96605947     0.77900
C1497       C  0.99945928  0.64450464  0.96686577     0.78300
C1498       C  0.60391030  0.75020801  0.52172412     0.77300
C1499       C  0.99881091  0.64352150  0.57551193     0.77700
C1500       C  0.89580243  0.74843904  0.52153868     0.78800
C1501       C  0.99902042  0.84773241  0.57741544     0.77900
Zn1502     Zn  0.71809216  0.68967290  0.52186008     1.49700
Zn1503     Zn  0.78182843  0.75047816  0.55570641     1.49400
Zn1504     Zn  0.78187364  0.75067166  0.98772100     1.49100
Zn1505     Zn  0.71870376  0.81243108  0.52171237     1.49500
O1506       O  0.75018705  0.75093017  0.52174923    -1.83400
O1507       O  0.72671081  0.64632251  0.55614000    -0.74000
O1508       O  0.83673096  0.74989911  0.54498528    -0.73800
O1509       O  0.77352683  0.68698695  0.96436523    -0.73400
O1510       O  0.77311395  0.68690848  0.57926997    -0.74000
O1511       O  0.72740732  0.64611098  0.98778785    -0.73600
O1512       O  0.83673042  0.75035017  0.99825441    -0.74200
O1513       O  0.72829471  0.85556821  0.98719177    -0.73600
O1514       O  0.77366807  0.81364936  0.57947048    -0.74400
O1515       O  0.77367215  0.81368412  0.96387902    -0.73800
O1516       O  0.72812470  0.85529986  0.55624509    -0.74200
O1517       O  0.66320371  0.79353274  0.52173763    -0.74100
O1518       O  0.66315450  0.70842663  0.52173092    -0.73900
C1519       C  0.74989950  0.64940027  0.57670256     0.77900
C1520       C  0.85423919  0.74972891  0.52159570     0.78300
C1521       C  0.75060356  0.64922390  0.96717706     0.77300
C1522       C  0.75110463  0.85157381  0.96638143     0.77700
C1523       C  0.75094495  0.85139585  0.57701061     0.78800
C1524       C  0.64559947  0.75083400  0.52173863     0.77900
C1525       C  0.89723411  0.54290440  0.89810780    -0.08400
C1526       C  0.91645259  0.99584269  0.90039861     0.07800
C1527       C  0.89383715  0.95132684  0.89592214    -0.02200
C1528       C  0.85362067  0.95393688  0.89765630    -0.06600
C1529       C  0.83435242  0.00078210  0.90106803     0.06900
C1530       C  0.85690795  0.54563388  0.89715809    -0.01700
Br1531     Br  0.83582012  0.61005284  0.88558362    -0.01400
H1532       H  0.91368155  0.57784776  0.89563077     0.10800
H1533       H  0.83727985  0.91913919  0.89445689     0.08800
Br1534     Br  0.91427438  0.88846425  0.88142385    -0.01800
C1535       C  0.60407154  0.50714365  0.92944127    -0.08400
C1536       C  0.58429199  0.99292627  0.90483356     0.07800
C1537       C  0.60632247  0.96669652  0.88440190    -0.02200
C1538       C  0.64658763  0.97018424  0.88484040    -0.06600
C1539       C  0.66636653  0.99550384  0.90660478     0.06900
C1540       C  0.64439173  0.50628114  0.93100855    -0.01700
Br1541     Br  0.66562266  0.50844248  0.96830176    -0.01400
H1542       H  0.58811284  0.51504212  0.94839903     0.10800
H1543       H  0.66252099  0.94973579  0.86896523     0.08800
Br1544     Br  0.58478846  0.91702882  0.85903917    -0.01800
C1545       C  0.76704528  0.55077920  0.75646012    -0.08400
C1546       C  0.74686283  0.01194174  0.74231439     0.07800
C1547       C  0.72649452  0.97496038  0.75802282    -0.02200
C1548       C  0.72687078  0.97699912  0.78732675    -0.06600
C1549       C  0.74744067  0.51533266  0.80149085     0.06900
C1550       C  0.76710374  0.55302049  0.78585620    -0.01700
Br1551     Br  0.79194450  0.60994393  0.80372678    -0.01400
H1552       H  0.78224479  0.57979892  0.74452446     0.10800
H1553       H  0.71182070  0.94779538  0.79922869     0.08800
Br1554     Br  0.70002996  0.91880892  0.74059128    -0.01800
C1555       C  0.85283287  0.95376685  0.64618858    -0.08400
C1556       C  0.83358008  0.00052328  0.64234733     0.07800
C1557       C  0.85610189  0.54546372  0.64580893    -0.02200
C1558       C  0.89640454  0.54273464  0.64462363    -0.06600
C1559       C  0.91564967  0.99560325  0.64273940     0.06900
C1560       C  0.89307636  0.95126247  0.64785906    -0.01700
Br1561     Br  0.91373909  0.88930163  0.66333109    -0.01400
H1562       H  0.83644555  0.91907838  0.64971402     0.10800
H1563       H  0.91287202  0.57772757  0.64674757     0.08800
Br1564     Br  0.83519882  0.60985643  0.65757331    -0.01400
C1565       C  0.60354970  0.50667835  0.61366840    -0.08400
C1566       C  0.58344876  0.99242587  0.63813830     0.07800
C1567       C  0.60516883  0.96626063  0.65874057    -0.02200
C1568       C  0.64545185  0.96977592  0.65858617    -0.06600
C1569       C  0.66557642  0.99502831  0.63690236     0.06900
C1570       C  0.64389244  0.50583873  0.61237967    -0.01700
Br1571     Br  0.66576600  0.50836326  0.57527529    -0.01400
H1572       H  0.58791065  0.51450434  0.59458730     0.10800
H1573       H  0.66110179  0.94924706  0.67455754     0.08800
Br1574     Br  0.58309040  0.91672204  0.68398925    -0.01800
C1575       C  0.51330905  0.56019245  0.78648368    -0.08400
C1576       C  0.00178934  0.01581527  0.80081308     0.07800
C1577       C  0.99065081  0.97231802  0.78541551    -0.02200
C1578       C  0.99016635  0.97401495  0.75612986    -0.06600
C1579       C  0.00114599  0.51847901  0.74174393     0.06900
C1580       C  0.51294730  0.56180181  0.75704785    -0.01700
Br1581     Br  0.52687550  0.62418246  0.73847413    -0.01400
H1582       H  0.52196628  0.59372677  0.79825905     0.10800
H1583       H  0.98168496  0.94033366  0.74440420     0.08800
Br1584     Br  0.97783337  0.90908481  0.80360413    -0.01800
loop_ 
_geom_bond_atom_site_label_1 
_geom_bond_atom_site_label_2 
_geom_bond_distance 
_geom_bond_site_symmetry_2 
_ccdc_geom_bond_type 
C1            C3   1.544       .  S
C1            C5   1.536       .  S
C1          C180   1.542       .  S
C1          C400   1.548       .  S
C2            C6   1.531       .  S
C2            C8   1.546       .  S
C2          C173   1.541       .  S
C2          C403   1.551       .  S
C3           C11   1.383       .  A
C3          C798   1.393   1_455  A
C4          C397   1.548   1_545  S
C4           C15   1.380       .  A
C4          C799   1.401   1_455  A
C5           C19   1.380       .  A
C5          C800   1.401   1_455  A
C6            C9   1.375       .  A
C6          C795   1.393       .  A
C7          C398   1.551   1_545  S
C7           C13   1.385       .  A
C7          C796   1.401       .  A
C8           C16   1.386       .  A
C8          C797   1.401       .  A
C9          N406   1.356       .  A
C9          H418   1.082       .  S
N10         C405   1.356       .  A
N10        C1199   1.358       .  A
N10         C193   1.434       .  S
C11        N1198   1.358       .  A
C11         H408   1.082       .  S
H12         C407   1.082       .  S
C13         N806   1.357       .  A
C13          H23   1.082       .  S
N14          C15   1.355   1_655  A
N14         C805   1.357       .  A
N14         C905   1.434       .  S
C15          H21   1.081       .  S
C16         N809   1.355       .  A
C16          H18   1.082       .  S
N17          C19   1.354   1_655  A
N17         C808   1.355       .  A
N17         C907   1.434       .  S
C19          H20   1.083       .  S
H22         C405   1.082       .  S
C24          C27   1.533       .  S
C24         C183   1.544       .  S
C24         C422   1.547       .  S
C24         C424   1.543       .  S
C25          C30   1.547       .  S
C25         C170   1.543       .  S
C25         C425   1.534       .  S
C25         C427   1.547       .  S
C26         C420   1.547   1_545  S
C26          C29   1.397       .  A
C26         C430   1.381       .  A
C27          C38   1.376       .  A
C27          C30   1.397       .  A
C28         C420   1.543   1_545  S
C28          C42   1.378       .  A
C28          C31   1.401       .  A
C29         C421   1.534       .  S
C29         C428   1.377       .  A
C30          C36   1.384       .  A
C31         C421   1.547       .  S
C31          C39   1.381       .  A
C32         C425   1.377       .  A
C32          N33   1.357       .  A
C32          H45   1.083       .  S
N33          C34   1.358       .  A
N33         C160   1.437       .  S
C34         C422   1.381       .  A
C34          H35   1.082       .  S
C36          N37   1.357       .  A
C36          H46   1.082       .  S
N37          C38   1.354       .  A
N37         C137   1.431       .  S
C38          H44   1.083       .  S
C39          N40   1.356       .  A
C39          H41   1.082       .  S
N40          C42   1.354       .  A
N40         C133   1.430       .  S
C42          H43   1.082       .  S
C47          C50   1.536       .  S
C47         C150   1.542       .  S
C47         C445   1.545       .  S
C47         C447   1.548       .  S
C48          C53   1.545       .  S
C48         C140   1.542       .  S
C48         C448   1.530       .  S
C48         C450   1.550       .  S
C49         C443   1.545   1_545  S
C49         C453   1.383       .  A
C49         C844   1.394   1_455  A
C50          C61   1.380       .  A
C50         C845   1.400   1_455  A
C51         C443   1.548   1_545  S
C51          C65   1.381       .  A
C51         C846   1.401   1_455  A
C52         C444   1.530   1_545  S
C52         C841   1.394       .  A
C52         C451   1.375       .  A
C53          C59   1.385       .  A
C53         C842   1.400       .  A
C54         C444   1.550   1_545  S
C54          C62   1.385       .  A
C54         C843   1.401       .  A
C55         C448   1.375       .  A
C55          N56   1.356       .  A
C55          H68   1.082       .  S
N56         C849   1.357       .  A
N56         C190   1.434       .  S
C57         C445   1.383       .  A
C57         N848   1.357       .  A
C57          H58   1.082       .  S
C59          N60   1.355       .  A
C59          H69   1.082       .  S
N60         C853   1.355       .  A
N60         C110   1.433       .  S
C61         N852   1.355   1_455  A
C61          H67   1.083       .  S
C62          N63   1.357       .  A
C62          H64   1.082       .  S
N63         C857   1.356       .  A
N63         C111   1.435       .  S
C65         N855   1.356   1_455  A
C65          H66   1.081       .  S
C70          C72   1.547       .  S
C70          C74   1.531       .  S
C70         C153   1.544       .  S
C70         C469   1.543       .  S
C71          C75   1.534       .  S
C71          C77   1.549       .  S
C71         C143   1.543       .  S
C71         C472   1.546       .  S
C72          C80   1.381       .  A
C72          C75   1.396       .  A
C73         C466   1.543   1_545  S
C73          C84   1.377       .  A
C73          C76   1.401       .  A
C74          C88   1.376       .  A
C74          C77   1.397       .  A
C75          C78   1.377       .  A
C76         C467   1.546       .  S
C76          C82   1.382       .  A
C77          C85   1.385       .  A
C78         N475   1.357       .  A
C78         H487   1.082       .  S
N79         C474   1.357       .  A
N79         C476   1.357       .  A
N79         C163   1.436       .  S
C80         N475   1.357       .  A
C80         H477   1.082       .  S
H81         C476   1.082       .  S
C82          N83   1.356       .  A
C82          H92   1.082       .  S
N83          C84   1.354       .  A
N83         C135   1.430       .  S
C84          H90   1.082       .  S
C85          N86   1.357       .  A
C85          H87   1.082       .  S
N86          C88   1.353       .  A
N86         C136   1.431       .  S
C88          H89   1.082       .  S
H91         C474   1.082       .  S
Zn93        O102   1.983       .  S
Zn93        O109   2.021       .  S
Zn93        O296   2.020   1_554  S
Zn93        O889   1.959   1_455  S
Zn94         O99   2.043       .  S
Zn94        O101   2.036       .  S
Zn94        O105   1.979       .  S
Zn94        O295   1.961       .  S
Zn95        O100   1.979       .  S
Zn95        O106   2.012       .  S
Zn95        O301   2.014   1_554  S
Zn95        O889   1.947   1_455  S
Zn96        O104   2.041       .  S
Zn96        O107   1.974       .  S
Zn96        O108   2.037       .  S
Zn96         O97   1.963       .  S
O97        Zn885   1.959       .  S
O97        Zn292   1.961   1_554  S
O97        Zn887   1.947       .  S
O98        Zn291   2.020       .  S
O98         C902   1.273   1_455  A
O99         C111   1.275       .  A
O100        C112   1.270       .  A
O101        C110   1.275       .  A
O102        C112   1.270       .  A
O103       Zn293   2.014       .  S
O103        C903   1.272   1_455  A
O104        C113   1.275       .  A
O105        C312   1.270       .  A
O106        C905   1.272   1_455  A
O107        C114   1.269       .  A
O108        C115   1.275       .  A
O109        C907   1.273   1_455  A
C110        O890   1.273       .  A
C111        O895   1.272       .  A
C112        C138   1.449       .  S
C113        N806   1.434       .  S
C113        O898   1.272       .  A
C114        O303   1.270   1_554  A
C114        C134   1.446       .  S
C115        N809   1.434       .  S
C115        O901   1.273       .  A
Zn116       O121   2.012       .  S
Zn116       O132   1.975       .  S
Zn116       O323   2.011   1_554  S
Zn116       O120   1.947       .  S
Zn117       O122   1.975       .  S
Zn117       O124   2.027       .  S
Zn117       O128   2.025       .  S
Zn117       O120   1.958       .  S
Zn118       O123   2.024       .  S
Zn118       O126   1.973       .  S
Zn118       O129   2.023       .  S
Zn118       O318   1.959       .  S
Zn119       O130   2.018       .  S
Zn119       O131   1.989       .  S
Zn119       O325   2.021   1_554  S
Zn119       O120   1.951       .  S
O120       Zn316   1.959   1_554  S
O121        C133   1.272       .  A
O122        C134   1.269       .  A
O123        C135   1.273       .  A
O124        C133   1.273       .  A
O125       Zn314   2.011       .  S
O125        C135   1.272       .  A
O126        C332   1.269       .  A
O127       Zn317   2.021       .  S
O127        C136   1.274       .  A
O128        C137   1.273       .  A
O129        C136   1.273       .  A
O130        C137   1.273       .  A
O131        C138   1.271       .  A
O132        C138   1.269       .  A
C134        O324   1.269   1_554  A
C139        C144   1.405       .  A
C139        C536   1.409   1_545  A
C139        H146   1.082       .  S
C140        C141   1.418       .  A
C140        C535   1.409       .  A
C141        C142   1.403       .  A
C141       Br148   1.923       .  S
C142        C143   1.409       .  A
C142        H147   1.081       .  S
C143        C540   1.419       .  A
C144        C539   1.419       .  A
C144       Br145   1.922       .  S
C149        C154   1.404       .  A
C149        C546   1.409   1_545  A
C149        H156   1.080       .  S
C150        C151   1.418       .  A
C150        C545   1.409       .  A
C151        C152   1.402       .  A
C151       Br158   1.924       .  S
C152        C153   1.409       .  A
C152        H157   1.081       .  S
C153        C550   1.420       .  A
C154        C549   1.420   1_545  A
C154       Br155   1.926       .  S
C159        C164   1.402       .  A
C159        C556   1.404       .  A
C159        H166   1.083       .  S
C160        C161   1.410       .  A
C160        C555   1.404       .  A
C161        C162   1.398       .  A
C161       Br168   1.919       .  S
C162        C559   1.402       .  A
C162        H167   1.083       .  S
C163        C164   1.409       .  A
C163        C558   1.402   1_545  A
C164       Br165   1.918       .  S
C169        C170   1.409       .  A
C169        C174   1.403       .  A
C169        H176   1.082       .  S
C170        C567   1.419       .  A
C171        C172   1.404       .  A
C171        C566   1.419       .  A
C171       Br178   1.922       .  S
C172        C569   1.408   1_545  A
C172        H177   1.082       .  S
C173        C174   1.418       .  A
C173        C568   1.408       .  A
C174       Br175   1.923       .  S
C179        C184   1.404       .  A
C179        C576   1.408   1_545  A
C179        H186   1.080       .  S
C180        C181   1.417       .  A
C180        C575   1.408       .  A
C181        C182   1.403       .  A
C181       Br188   1.924       .  S
C182        C183   1.409       .  A
C182        H187   1.080       .  S
C183        C580   1.420       .  A
C184        C579   1.420   1_545  A
C184       Br185   1.925       .  S
C189        C194   1.403       .  A
C189       C1378   1.403       .  A
C189        H196   1.083       .  S
C190        C191   1.407       .  A
C190       C1377   1.403       .  A
C191        C192   1.396       .  A
C191       Br198   1.917       .  S
C192        C589   1.401       .  A
C192        H197   1.083       .  S
C193        C588   1.401   1_545  A
C193        C986   1.407       .  A
C194        C985   1.407       .  A
C194       Br195   1.915       .  S
C199        C201   1.544       .  S
C199        C203   1.536       .  S
C199        C598   1.548       .  S
C199        C378   1.542       .  S
C200        C204   1.531       .  S
C200        C206   1.546       .  S
C200        C601   1.551       .  S
C200        C371   1.541       .  S
C201        C209   1.383       .  A
C201        C996   1.393   1_455  A
C202        C595   1.548   1_545  S
C202        C213   1.380       .  A
C202        C997   1.401   1_455  A
C203        C217   1.380       .  A
C203        C998   1.401   1_455  A
C204        C993   1.393       .  A
C204        C207   1.375       .  A
C205        C596   1.551   1_545  S
C205        C994   1.401       .  A
C205        C211   1.385       .  A
C206        C995   1.401       .  A
C206        C214   1.386       .  A
C207        N604   1.356       .  A
C207        H616   1.082       .  S
N208        C603   1.356       .  A
N208       C1397   1.358       .  A
N208        C391   1.434       .  S
C209       N1396   1.358       .  A
C209        H606   1.082       .  S
H210        C605   1.082       .  S
C211       N1004   1.357       .  A
C211        H221   1.082       .  S
N212       C1003   1.357       .  A
N212        C213   1.355   1_655  A
N212       C1103   1.434       .  S
C213        H219   1.081       .  S
C214       N1007   1.355       .  A
C214        H216   1.082       .  S
N215       C1006   1.355       .  A
N215        C217   1.354   1_655  A
N215       C1105   1.434       .  S
C217        H218   1.083       .  S
H220        C603   1.082       .  S
C222        C620   1.547       .  S
C222        C622   1.543       .  S
C222        C225   1.533       .  S
C222        C381   1.544       .  S
C223        C623   1.534       .  S
C223        C625   1.547       .  S
C223        C228   1.547       .  S
C223        C368   1.543       .  S
C224        C618   1.547   1_545  S
C224        C628   1.381       .  A
C224        C227   1.397       .  A
C225        C236   1.376       .  A
C225        C228   1.397       .  A
C226        C618   1.543   1_545  S
C226        C240   1.378       .  A
C226        C229   1.401       .  A
C227        C619   1.534       .  S
C227        C626   1.377       .  A
C228        C234   1.384       .  A
C229        C619   1.547       .  S
C229        C237   1.381       .  A
C230        C623   1.377       .  A
C230        N231   1.357       .  A
C230        H243   1.083       .  S
N231        C232   1.358       .  A
N231        C358   1.437       .  S
C232        C620   1.381       .  A
C232        H233   1.082       .  S
C234        N235   1.357       .  A
C234        H244   1.082       .  S
N235        C236   1.354       .  A
N235        C335   1.431       .  S
C236        H242   1.083       .  S
C237        N238   1.356       .  A
C237        H239   1.082       .  S
N238        C240   1.354       .  A
N238        C331   1.430       .  S
C240        H241   1.082       .  S
C245        C643   1.545       .  S
C245        C645   1.548       .  S
C245        C248   1.536       .  S
C245        C348   1.542       .  S
C246        C646   1.530       .  S
C246        C648   1.550       .  S
C246        C251   1.545       .  S
C246        C338   1.542       .  S
C247        C641   1.545   1_545  S
C247        C651   1.383       .  A
C247       C1042   1.394   1_455  A
C248        C259   1.380       .  A
C248       C1043   1.400   1_455  A
C249        C641   1.548   1_545  S
C249        C263   1.381       .  A
C249       C1044   1.401   1_455  A
C250        C642   1.530   1_545  S
C250       C1039   1.394       .  A
C250        C649   1.375       .  A
C251       C1040   1.400       .  A
C251        C257   1.385       .  A
C252        C642   1.550   1_545  S
C252       C1041   1.401       .  A
C252        C260   1.385       .  A
C253        C646   1.375       .  A
C253        N254   1.356       .  A
C253        H266   1.082       .  S
N254       C1047   1.357       .  A
N254        C388   1.434       .  S
C255        C643   1.383       .  A
C255       N1046   1.357       .  A
C255        H256   1.082       .  S
C257        N258   1.355       .  A
C257        H267   1.082       .  S
N258       C1051   1.355       .  A
N258        C308   1.433       .  S
C259       N1050   1.355   1_455  A
C259        H265   1.083       .  S
C260        N261   1.357       .  A
C260        H262   1.082       .  S
N261       C1055   1.356       .  A
N261        C309   1.435       .  S
C263       N1053   1.356   1_455  A
C263        H264   1.081       .  S
C268        C270   1.547       .  S
C268        C272   1.531       .  S
C268        C667   1.543       .  S
C268        C351   1.544       .  S
C269        C273   1.534       .  S
C269        C275   1.549       .  S
C269        C670   1.546       .  S
C269        C341   1.543       .  S
C270        C278   1.381       .  A
C270        C273   1.396       .  A
C271        C664   1.543   1_545  S
C271        C282   1.377       .  A
C271        C274   1.401       .  A
C272        C286   1.376       .  A
C272        C275   1.397       .  A
C273        C276   1.377       .  A
C274        C665   1.546       .  S
C274        C280   1.382       .  A
C275        C283   1.385       .  A
C276        N673   1.357       .  A
C276        H685   1.082       .  S
N277        C672   1.357       .  A
N277        C674   1.357       .  A
N277        C361   1.436       .  S
C278        N673   1.357       .  A
C278        H675   1.082       .  S
H279        C674   1.082       .  S
C280        N281   1.356       .  A
C280        H290   1.082       .  S
N281        C282   1.354       .  A
N281        C333   1.430       .  S
C282        H288   1.082       .  S
C283        N284   1.357       .  A
C283        H285   1.082       .  S
N284        C286   1.353       .  A
N284        C334   1.431       .  S
C286        H287   1.082       .  S
H289        C672   1.082       .  S
Zn291       O300   1.983       .  S
Zn291       O307   2.021       .  S
Zn291      O1087   1.959   1_455  S
Zn292       O297   2.043       .  S
Zn292       O299   2.036       .  S
Zn292       O303   1.979       .  S
Zn293       O298   1.979       .  S
Zn293       O304   2.012       .  S
Zn293      O1087   1.947   1_455  S
Zn294       O302   2.041       .  S
Zn294       O305   1.974       .  S
Zn294       O306   2.037       .  S
Zn294       O295   1.963       .  S
O295      Zn1083   1.959       .  S
O295      Zn1085   1.947       .  S
O296       C1100   1.273   1_455  A
O297        C309   1.275       .  A
O298        C310   1.270       .  A
O299        C308   1.275       .  A
O300        C310   1.270       .  A
O301       C1101   1.272   1_455  A
O302        C311   1.275       .  A
O304       C1103   1.272   1_455  A
O305        C312   1.269       .  A
O306        C313   1.275       .  A
O307       C1105   1.273   1_455  A
C308       O1088   1.273       .  A
C309       O1093   1.272       .  A
C310        C336   1.449       .  S
C311       N1004   1.434       .  S
C311       O1096   1.272       .  A
C312        C332   1.446       .  S
C313       N1007   1.434       .  S
C313       O1099   1.273       .  A
Zn314       O319   2.012       .  S
Zn314       O330   1.975       .  S
Zn314       O318   1.947       .  S
Zn315       O320   1.975       .  S
Zn315       O322   2.027       .  S
Zn315       O326   2.025       .  S
Zn315       O318   1.958       .  S
Zn316       O321   2.024       .  S
Zn316       O324   1.973       .  S
Zn316       O327   2.023       .  S
Zn317       O328   2.018       .  S
Zn317       O329   1.989       .  S
Zn317       O318   1.951       .  S
O319        C331   1.272       .  A
O320        C332   1.269       .  A
O321        C333   1.273       .  A
O322        C331   1.273       .  A
O323        C333   1.272       .  A
O325        C334   1.274       .  A
O326        C335   1.273       .  A
O327        C334   1.273       .  A
O328        C335   1.273       .  A
O329        C336   1.271       .  A
O330        C336   1.269       .  A
C337        C734   1.409   1_545  A
C337        C342   1.405       .  A
C337        H344   1.082       .  S
C338        C733   1.409       .  A
C338        C339   1.418       .  A
C339        C340   1.403       .  A
C339       Br346   1.923       .  S
C340        C341   1.409       .  A
C340        H345   1.081       .  S
C341        C738   1.419       .  A
C342        C737   1.419       .  A
C342       Br343   1.922       .  S
C347        C744   1.409   1_545  A
C347        C352   1.404       .  A
C347        H354   1.080       .  S
C348        C743   1.409       .  A
C348        C349   1.418       .  A
C349        C350   1.402       .  A
C349       Br356   1.924       .  S
C350        C351   1.409       .  A
C350        H355   1.081       .  S
C351        C748   1.420       .  A
C352        C747   1.420   1_545  A
C352       Br353   1.926       .  S
C357        C754   1.404       .  A
C357        C362   1.402       .  A
C357        H364   1.083       .  S
C358        C753   1.404       .  A
C358        C359   1.410       .  A
C359        C360   1.398       .  A
C359       Br366   1.919       .  S
C360        C757   1.402       .  A
C360        H365   1.083       .  S
C361        C756   1.402   1_545  A
C361        C362   1.409       .  A
C362       Br363   1.918       .  S
C367        C368   1.409       .  A
C367        C372   1.403       .  A
C367        H374   1.082       .  S
C368        C765   1.419       .  A
C369        C764   1.419       .  A
C369        C370   1.404       .  A
C369       Br376   1.922       .  S
C370        C767   1.408   1_545  A
C370        H375   1.082       .  S
C371        C766   1.408       .  A
C371        C372   1.418       .  A
C372       Br373   1.923       .  S
C377        C774   1.408   1_545  A
C377        C382   1.404       .  A
C377        H384   1.080       .  S
C378        C773   1.408       .  A
C378        C379   1.417       .  A
C379        C380   1.403       .  A
C379       Br386   1.924       .  S
C380        C381   1.409       .  A
C380        H385   1.080       .  S
C381        C778   1.420       .  A
C382        C777   1.420   1_545  A
C382       Br383   1.925       .  S
C387       C1576   1.403       .  A
C387        C392   1.403       .  A
C387        H394   1.083       .  S
C388       C1575   1.403       .  A
C388        C389   1.407       .  A
C389        C390   1.396       .  A
C389       Br396   1.917       .  S
C390        C787   1.401       .  A
C390        H395   1.083       .  S
C391        C786   1.401   1_545  A
C391       C1184   1.407       .  A
C392       C1183   1.407       .  A
C392       Br393   1.915       .  S
C397        C399   1.544   1_565  S
C397        C401   1.536       .  S
C397        C576   1.542       .  S
C398        C402   1.531   1_565  S
C398        C404   1.545       .  S
C398        C569   1.542       .  S
C399        C407   1.383       .  A
C399       C1194   1.393   1_455  A
C400        C411   1.380       .  A
C400       C1195   1.401   1_455  A
C401        C415   1.380       .  A
C401       C1196   1.401   1_455  A
C402       C1191   1.393       .  A
C402        C405   1.375       .  A
C403       C1192   1.401       .  A
C403        C409   1.385       .  A
C404       C1193   1.401       .  A
C404        C412   1.386       .  A
N406        C803   1.358       .  A
N406        C589   1.434       .  S
C407        N802   1.358       .  A
C409       N1202   1.357       .  A
C409        H419   1.082       .  S
N410       C1201   1.357       .  A
N410        C411   1.355   1_655  A
N410       C1301   1.434       .  S
C411        H417   1.081       .  S
C412       N1205   1.355       .  A
C412        H414   1.082       .  S
N413       C1204   1.355       .  A
N413        C415   1.354   1_655  A
N413       C1303   1.434       .  S
C415        H416   1.083       .  S
C420        C423   1.533       .  S
C420        C579   1.544       .  S
C421        C426   1.547   1_545  S
C421        C566   1.543       .  S
C422        C425   1.397       .  A
C423        C434   1.376       .  A
C423        C426   1.397       .  A
C424        C438   1.378       .  A
C424        C427   1.401       .  A
C426        C432   1.384       .  A
C427        C435   1.381       .  A
C428        N429   1.357       .  A
C428        H441   1.083       .  S
N429        C430   1.358       .  A
N429        C556   1.437       .  S
C430        H431   1.082       .  S
C432        N433   1.357       .  A
C432        H442   1.082       .  S
N433        C434   1.354       .  A
N433        C533   1.431       .  S
C434        H440   1.082       .  S
C435        N436   1.356       .  A
C435        H437   1.082       .  S
N436        C438   1.354       .  A
N436        C529   1.430       .  S
C438        H439   1.082       .  S
C443        C446   1.536       .  S
C443        C546   1.542       .  S
C444        C449   1.545       .  S
C444        C536   1.542       .  S
C445       C1240   1.394   1_455  A
C446        C457   1.380       .  A
C446       C1241   1.400   1_455  A
C447        C461   1.381       .  A
C447       C1242   1.401   1_455  A
C448       C1237   1.394       .  A
C449       C1238   1.400       .  A
C449        C455   1.385       .  A
C450       C1239   1.401       .  A
C450        C458   1.385       .  A
C451        N452   1.356       .  A
C451        H464   1.082       .  S
N452       C1245   1.357       .  A
N452        C586   1.434       .  S
C453       N1244   1.357       .  A
C453        H454   1.082       .  S
C455        N456   1.355       .  A
C455        H465   1.082       .  S
N456       C1249   1.355       .  A
N456        C506   1.433       .  S
C457       N1248   1.355   1_455  A
C457        H463   1.083       .  S
C458        N459   1.357       .  A
C458        H460   1.082       .  S
N459       C1253   1.356       .  A
N459        C507   1.435       .  S
C461       N1251   1.356   1_455  A
C461        H462   1.081       .  S
C466        C468   1.547   1_565  S
C466        C470   1.531       .  S
C466        C549   1.544       .  S
C467        C471   1.534       .  S
C467        C473   1.549   1_545  S
C467        C539   1.543       .  S
C468        C476   1.381       .  A
C468        C471   1.396       .  A
C469        C480   1.377       .  A
C469        C472   1.401       .  A
C470        C484   1.376       .  A
C470        C473   1.397       .  A
C471        C474   1.377       .  A
C472        C478   1.382       .  A
C473        C481   1.385       .  A
N475        C559   1.436       .  S
C478        N479   1.356       .  A
C478        H488   1.082       .  S
N479        C480   1.354       .  A
N479        C531   1.430       .  S
C480        H486   1.082       .  S
C481        N482   1.357       .  A
C481        H483   1.082       .  S
N482        C484   1.353       .  A
N482        C532   1.431       .  S
C484        H485   1.082       .  S
Zn489       O692   2.020   1_554  S
Zn489       O498   1.983       .  S
Zn489       O505   2.021       .  S
Zn489      O1285   1.959   1_455  S
Zn490       O495   2.043       .  S
Zn490       O497   2.036       .  S
Zn490       O501   1.979       .  S
Zn490       O691   1.961       .  S
Zn491       O496   1.979       .  S
Zn491       O697   2.014   1_554  S
Zn491       O502   2.012       .  S
Zn491      O1285   1.947   1_455  S
Zn492       O500   2.041       .  S
Zn492       O503   1.974       .  S
Zn492       O504   2.036       .  S
Zn492       O493   1.963       .  S
O493      Zn1281   1.959       .  S
O493       Zn688   1.961   1_554  S
O493      Zn1283   1.947       .  S
O494       Zn687   2.020       .  S
O494       C1298   1.273   1_455  A
O495        C507   1.275       .  A
O496        C508   1.270       .  A
O497        C506   1.275       .  A
O498        C508   1.270       .  A
O499       Zn689   2.014       .  S
O499       C1299   1.272   1_455  A
O500        C509   1.275       .  A
O501        C708   1.270       .  A
O502       C1301   1.272   1_455  A
O503        C510   1.269       .  A
O504        C511   1.275       .  A
O505       C1303   1.273   1_455  A
C506       O1286   1.273       .  A
C507       O1291   1.272       .  A
C508        C534   1.449       .  S
C509       N1202   1.434       .  S
C509       O1294   1.272       .  A
C510        O699   1.270   1_554  A
C510        C530   1.446       .  S
C511       N1205   1.434       .  S
C511       O1297   1.273       .  A
Zn512       O517   2.012       .  S
Zn512       O719   2.011   1_554  S
Zn512       O528   1.975       .  S
Zn512       O516   1.947       .  S
Zn513       O518   1.975       .  S
Zn513       O520   2.027       .  S
Zn513       O524   2.025       .  S
Zn513       O516   1.958       .  S
Zn514       O519   2.024       .  S
Zn514       O522   1.973       .  S
Zn514       O525   2.023       .  S
Zn514       O714   1.959       .  S
Zn515       O721   2.020   1_554  S
Zn515       O526   2.018       .  S
Zn515       O527   1.989       .  S
Zn515       O516   1.951       .  S
O516       Zn712   1.959   1_554  S
O517        C529   1.272       .  A
O518        C530   1.269       .  A
O519        C531   1.273       .  A
O520        C529   1.273       .  A
O521       Zn710   2.011       .  S
O521        C531   1.272       .  A
O522        C728   1.269       .  A
O523       Zn713   2.020       .  S
O523        C532   1.274       .  A
O524        C533   1.273       .  A
O525        C532   1.273       .  A
O526        C533   1.273       .  A
O527        C534   1.271       .  A
O528        C534   1.269       .  A
C530        O720   1.269   1_554  A
C535        C540   1.405       .  A
C535        H542   1.082       .  S
C536        C537   1.418       .  A
C537        C538   1.403       .  A
C537       Br544   1.923       .  S
C538        C539   1.409   1_565  A
C538        H543   1.081       .  S
C540       Br541   1.922       .  S
C545        C550   1.404       .  A
C545        H552   1.080       .  S
C546        C547   1.418       .  A
C547        C548   1.402       .  A
C547       Br554   1.924       .  S
C548        C549   1.409       .  A
C548        H553   1.081       .  S
C550       Br551   1.926       .  S
C555        C560   1.402       .  A
C555        H562   1.083       .  S
C556        C557   1.410   1_545  A
C557        C558   1.398       .  A
C557       Br564   1.919       .  S
C558        H563   1.083       .  S
C559        C560   1.409       .  A
C560       Br561   1.918       .  S
C565        C566   1.409   1_565  A
C565        C570   1.403       .  A
C565        H572   1.082       .  S
C567        C568   1.404       .  A
C567       Br574   1.922       .  S
C568        H573   1.082       .  S
C569        C570   1.418       .  A
C570       Br571   1.923       .  S
C575        C580   1.404       .  A
C575        H582   1.080       .  S
C576        C577   1.417       .  A
C577        C578   1.403       .  A
C577       Br584   1.924       .  S
C578        C579   1.409       .  A
C578        H583   1.080       .  S
C580       Br581   1.925       .  S
C585        C982   1.403       .  A
C585        C590   1.403       .  A
C585        H592   1.083       .  S
C586        C981   1.403       .  A
C586        C587   1.407   1_545  A
C587        C588   1.396       .  A
C587       Br594   1.917       .  S
C588        H593   1.083       .  S
C589       C1382   1.407       .  A
C590       C1381   1.407       .  A
C590       Br591   1.915       .  S
C595        C597   1.544   1_565  S
C595        C599   1.536       .  S
C595        C774   1.542       .  S
C596        C600   1.531   1_565  S
C596        C602   1.545       .  S
C596        C767   1.542       .  S
C597        C605   1.383       .  A
C597       C1392   1.393   1_455  A
C598        C609   1.380       .  A
C598       C1393   1.401   1_455  A
C599        C613   1.380       .  A
C599       C1394   1.401   1_455  A
C600       C1389   1.393       .  A
C600        C603   1.375       .  A
C601       C1390   1.401       .  A
C601        C607   1.385       .  A
C602       C1391   1.401       .  A
C602        C610   1.386       .  A
N604       C1001   1.358       .  A
N604        C787   1.434       .  S
C605       N1000   1.358       .  A
C607       N1400   1.357       .  A
C607        H617   1.082       .  S
N608       C1399   1.357       .  A
N608        C609   1.355   1_655  A
N608       C1499   1.434       .  S
C609        H615   1.081       .  S
C610       N1403   1.355       .  A
C610        H612   1.082       .  S
N611       C1402   1.355       .  A
N611        C613   1.354   1_655  A
N611       C1501   1.434       .  S
C613        H614   1.083       .  S
C618        C621   1.533       .  S
C618        C777   1.544       .  S
C619        C624   1.547   1_545  S
C619        C764   1.543       .  S
C620        C623   1.397       .  A
C621        C632   1.376       .  A
C621        C624   1.397       .  A
C622        C636   1.378       .  A
C622        C625   1.401       .  A
C624        C630   1.384       .  A
C625        C633   1.381       .  A
C626        N627   1.357       .  A
C626        H639   1.083       .  S
N627        C628   1.358       .  A
N627        C754   1.437       .  S
C628        H629   1.082       .  S
C630        N631   1.357       .  A
C630        H640   1.082       .  S
N631        C632   1.354       .  A
N631        C731   1.431       .  S
C632        H638   1.082       .  S
C633        N634   1.356       .  A
C633        H635   1.082       .  S
N634        C636   1.354       .  A
N634        C727   1.430       .  S
C636        H637   1.082       .  S
C641        C644   1.536       .  S
C641        C744   1.542       .  S
C642        C647   1.545       .  S
C642        C734   1.542       .  S
C643       C1438   1.394   1_455  A
C644        C655   1.380       .  A
C644       C1439   1.400   1_455  A
C645        C659   1.381       .  A
C645       C1440   1.401   1_455  A
C646       C1435   1.394       .  A
C647       C1436   1.400       .  A
C647        C653   1.385       .  A
C648       C1437   1.401       .  A
C648        C656   1.385       .  A
C649        N650   1.356       .  A
C649        H662   1.082       .  S
N650       C1443   1.357       .  A
N650        C784   1.434       .  S
C651       N1442   1.357       .  A
C651        H652   1.082       .  S
C653        N654   1.355       .  A
C653        H663   1.082       .  S
N654       C1447   1.355       .  A
N654        C704   1.433       .  S
C655       N1446   1.355   1_455  A
C655        H661   1.083       .  S
C656        N657   1.357       .  A
C656        H658   1.082       .  S
N657       C1451   1.356       .  A
N657        C705   1.435       .  S
C659       N1449   1.356   1_455  A
C659        H660   1.081       .  S
C664        C666   1.547   1_565  S
C664        C668   1.531       .  S
C664        C747   1.544       .  S
C665        C669   1.534       .  S
C665        C671   1.549   1_545  S
C665        C737   1.543       .  S
C666        C674   1.381       .  A
C666        C669   1.396       .  A
C667        C678   1.377       .  A
C667        C670   1.401       .  A
C668        C682   1.376       .  A
C668        C671   1.397       .  A
C669        C672   1.377       .  A
C670        C676   1.382       .  A
C671        C679   1.385       .  A
N673        C757   1.436       .  S
C676        N677   1.356       .  A
C676        H686   1.082       .  S
N677        C678   1.354       .  A
N677        C729   1.430       .  S
C678        H684   1.082       .  S
C679        N680   1.357       .  A
C679        H681   1.082       .  S
N680        C682   1.353       .  A
N680        C730   1.431       .  S
C682        H683   1.082       .  S
Zn687       O696   1.983       .  S
Zn687       O703   2.021       .  S
Zn687      O1483   1.959   1_455  S
Zn688       O693   2.043       .  S
Zn688       O695   2.036       .  S
Zn688       O699   1.979       .  S
Zn689       O694   1.979       .  S
Zn689       O700   2.012       .  S
Zn689      O1483   1.947   1_455  S
Zn690       O698   2.041       .  S
Zn690       O701   1.974       .  S
Zn690       O702   2.036       .  S
Zn690       O691   1.963       .  S
O691      Zn1479   1.959       .  S
O691      Zn1481   1.947       .  S
O692       C1496   1.273   1_455  A
O693        C705   1.275       .  A
O694        C706   1.270       .  A
O695        C704   1.275       .  A
O696        C706   1.270       .  A
O697       C1497   1.272   1_455  A
O698        C707   1.275       .  A
O700       C1499   1.272   1_455  A
O701        C708   1.269       .  A
O702        C709   1.275       .  A
O703       C1501   1.273   1_455  A
C704       O1484   1.273       .  A
C705       O1489   1.272       .  A
C706        C732   1.449       .  S
C707       N1400   1.434       .  S
C707       O1492   1.272       .  A
C708        C728   1.446       .  S
C709       N1403   1.434       .  S
C709       O1495   1.273       .  A
Zn710       O715   2.012       .  S
Zn710       O726   1.975       .  S
Zn710       O714   1.947       .  S
Zn711       O716   1.975       .  S
Zn711       O718   2.027       .  S
Zn711       O722   2.025       .  S
Zn711       O714   1.958       .  S
Zn712       O717   2.024       .  S
Zn712       O720   1.973       .  S
Zn712       O723   2.023       .  S
Zn713       O724   2.018       .  S
Zn713       O725   1.989       .  S
Zn713       O714   1.951       .  S
O715        C727   1.272       .  A
O716        C728   1.269       .  A
O717        C729   1.273       .  A
O718        C727   1.273       .  A
O719        C729   1.272       .  A
O721        C730   1.274       .  A
O722        C731   1.273       .  A
O723        C730   1.273       .  A
O724        C731   1.273       .  A
O725        C732   1.271       .  A
O726        C732   1.269       .  A
C733        C738   1.405       .  A
C733        H740   1.082       .  S
C734        C735   1.418       .  A
C735        C736   1.403       .  A
C735       Br742   1.923       .  S
C736        C737   1.409   1_565  A
C736        H741   1.081       .  S
C738       Br739   1.922       .  S
C743        C748   1.404       .  A
C743        H750   1.080       .  S
C744        C745   1.418       .  A
C745        C746   1.402       .  A
C745       Br752   1.924       .  S
C746        C747   1.409       .  A
C746        H751   1.081       .  S
C748       Br749   1.926       .  S
C753        C758   1.402       .  A
C753        H760   1.083       .  S
C754        C755   1.410   1_545  A
C755        C756   1.398       .  A
C755       Br762   1.919       .  S
C756        H761   1.083       .  S
C757        C758   1.409       .  A
C758       Br759   1.918       .  S
C763        C764   1.409   1_565  A
C763        C768   1.403       .  A
C763        H770   1.082       .  S
C765        C766   1.404       .  A
C765       Br772   1.922       .  S
C766        H771   1.082       .  S
C767        C768   1.418       .  A
C768       Br769   1.923       .  S
C773        C778   1.404       .  A
C773        H780   1.080       .  S
C774        C775   1.417       .  A
C775        C776   1.403       .  A
C775       Br782   1.924       .  S
C776        C777   1.409       .  A
C776        H781   1.080       .  S
C778       Br779   1.925       .  S
C783       C1180   1.403       .  A
C783        C788   1.403       .  A
C783        H790   1.083       .  S
C784       C1179   1.403       .  A
C784        C785   1.407   1_545  A
C785        C786   1.396       .  A
C785       Br792   1.917       .  S
C786        H791   1.083       .  S
C787       C1580   1.407       .  A
C788       C1579   1.407       .  A
C788       Br789   1.915       .  S
C793        C795   1.544       .  S
C793        C797   1.536       .  S
C793       C1192   1.548       .  S
C793        C972   1.542       .  S
C794        C798   1.531       .  S
C794        C800   1.546       .  S
C794       C1195   1.551       .  S
C794        C965   1.541       .  S
C795        C803   1.383       .  A
C796       C1189   1.548   1_545  S
C796        C807   1.380       .  A
C797        C811   1.380       .  A
C798        C801   1.375       .  A
C799       C1190   1.551   1_545  S
C799        C805   1.385       .  A
C800        C808   1.386       .  A
C801       N1198   1.356   1_655  A
C801       H1210   1.082       .  S
N802       C1197   1.356   1_455  A
N802        C985   1.434       .  S
C803       H1200   1.082       .  S
H804       C1199   1.082       .  S
C805        H815   1.082       .  S
N806        C807   1.355       .  A
C807        H813   1.081       .  S
C808        H810   1.082       .  S
N809        C811   1.354       .  A
C811        H812   1.083       .  S
H814       C1197   1.082       .  S
C816       C1214   1.547       .  S
C816       C1216   1.543       .  S
C816        C819   1.533       .  S
C816        C975   1.544       .  S
C817       C1217   1.534       .  S
C817       C1219   1.547       .  S
C817        C822   1.547       .  S
C817        C962   1.543       .  S
C818       C1212   1.547   1_545  S
C818       C1222   1.381       .  A
C818        C821   1.397       .  A
C819        C830   1.376       .  A
C819        C822   1.397       .  A
C820       C1212   1.543   1_545  S
C820        C834   1.378       .  A
C820        C823   1.401       .  A
C821       C1213   1.534       .  S
C821       C1220   1.377       .  A
C822        C828   1.384       .  A
C823       C1213   1.547       .  S
C823        C831   1.381       .  A
C824       C1217   1.377       .  A
C824        N825   1.357       .  A
C824        H837   1.083       .  S
N825        C826   1.358       .  A
N825        C952   1.437       .  S
C826       C1214   1.381       .  A
C826        H827   1.082       .  S
C828        N829   1.357       .  A
C828        H838   1.082       .  S
N829        C830   1.354       .  A
N829        C929   1.431       .  S
C830        H836   1.083       .  S
C831        N832   1.356       .  A
C831        H833   1.082       .  S
N832        C834   1.354       .  A
N832        C925   1.430       .  S
C834        H835   1.082       .  S
C839       C1237   1.545       .  S
C839       C1239   1.548       .  S
C839        C842   1.536       .  S
C839        C942   1.542       .  S
C840       C1240   1.530       .  S
C840       C1242   1.550       .  S
C840        C845   1.545       .  S
C840        C932   1.542       .  S
C841       C1235   1.545   1_545  S
C841       C1245   1.383       .  A
C842        C853   1.380       .  A
C843       C1235   1.548   1_545  S
C843        C857   1.381       .  A
C844       C1236   1.530   1_545  S
C844       C1243   1.375       .  A
C845        C851   1.385       .  A
C846       C1236   1.550   1_545  S
C846        C854   1.385       .  A
C847       C1240   1.375       .  A
C847        N848   1.356   1_655  A
C847        H860   1.082       .  S
N848        C982   1.434       .  S
C849       C1237   1.383       .  A
C849        H850   1.082       .  S
C851        N852   1.355       .  A
C851        H861   1.082       .  S
N852        C902   1.433       .  S
C853        H859   1.083       .  S
C854        N855   1.357       .  A
C854        H856   1.082       .  S
N855        C903   1.435       .  S
C857        H858   1.081       .  S
C862        C864   1.547       .  S
C862        C866   1.531       .  S
C862       C1261   1.543       .  S
C862        C945   1.544       .  S
C863        C867   1.534       .  S
C863        C869   1.549       .  S
C863       C1264   1.546       .  S
C863        C935   1.543       .  S
C864        C872   1.381       .  A
C864        C867   1.396       .  A
C865       C1258   1.543   1_545  S
C865        C876   1.377       .  A
C865        C868   1.401       .  A
C866        C880   1.376       .  A
C866        C869   1.397       .  A
C867        C870   1.377       .  A
C868       C1259   1.546       .  S
C868        C874   1.382       .  A
C869        C877   1.385       .  A
C870       N1267   1.357       .  A
C870       H1279   1.082       .  S
N871       C1266   1.357       .  A
N871       C1268   1.357       .  A
N871        C955   1.436       .  S
C872       N1267   1.357       .  A
C872       H1269   1.082       .  S
H873       C1268   1.082       .  S
C874        N875   1.356       .  A
C874        H884   1.082       .  S
N875        C876   1.354       .  A
N875        C927   1.430       .  S
C876        H882   1.082       .  S
C877        N878   1.357       .  A
C877        H879   1.082       .  S
N878        C880   1.353       .  A
N878        C928   1.431       .  S
C880        H881   1.082       .  S
H883       C1266   1.082       .  S
Zn885      O1088   2.020   1_554  S
Zn885       O894   1.983       .  S
Zn885       O901   2.021       .  S
Zn886       O891   2.043       .  S
Zn886       O893   2.036       .  S
Zn886       O897   1.979       .  S
Zn886      O1087   1.961       .  S
Zn887       O892   1.979       .  S
Zn887      O1093   2.014   1_554  S
Zn887       O898   2.012       .  S
Zn888       O896   2.041       .  S
Zn888       O899   1.974       .  S
Zn888       O900   2.037       .  S
Zn888       O889   1.963       .  S
O889      Zn1084   1.961   1_554  S
O890      Zn1083   2.020       .  S
O891        C903   1.275       .  A
O892        C904   1.270       .  A
O893        C902   1.275       .  A
O894        C904   1.270       .  A
O895      Zn1085   2.014       .  S
O896        C905   1.275       .  A
O897       C1104   1.270       .  A
O899        C906   1.269       .  A
O900        C907   1.275       .  A
C904        C930   1.449       .  S
C906       O1095   1.270   1_554  A
C906        C926   1.446       .  S
Zn908       O913   2.012       .  S
Zn908      O1115   2.011   1_554  S
Zn908       O924   1.975       .  S
Zn908       O912   1.947       .  S
Zn909       O914   1.975       .  S
Zn909       O916   2.027       .  S
Zn909       O920   2.025       .  S
Zn909       O912   1.958       .  S
Zn910       O915   2.024       .  S
Zn910       O918   1.973       .  S
Zn910       O921   2.023       .  S
Zn910      O1110   1.959       .  S
Zn911      O1117   2.021   1_554  S
Zn911       O922   2.018       .  S
Zn911       O923   1.989       .  S
Zn911       O912   1.951       .  S
O912      Zn1108   1.959   1_554  S
O913        C925   1.272       .  A
O914        C926   1.269       .  A
O915        C927   1.273       .  A
O916        C925   1.273       .  A
O917      Zn1106   2.011       .  S
O917        C927   1.272       .  A
O918       C1124   1.269       .  A
O919      Zn1109   2.021       .  S
O919        C928   1.274       .  A
O920        C929   1.273       .  A
O921        C928   1.273       .  A
O922        C929   1.273       .  A
O923        C930   1.271       .  A
O924        C930   1.269       .  A
C926       O1116   1.269   1_554  A
C931       C1328   1.409   1_545  A
C931        C936   1.405       .  A
C931        H938   1.082       .  S
C932       C1327   1.409       .  A
C932        C933   1.418       .  A
C933        C934   1.403       .  A
C933       Br940   1.923       .  S
C934        C935   1.409       .  A
C934        H939   1.081       .  S
C935       C1332   1.419       .  A
C936       C1331   1.419       .  A
C936       Br937   1.922       .  S
C941       C1338   1.409   1_545  A
C941        C946   1.404       .  A
C941        H948   1.080       .  S
C942       C1337   1.409       .  A
C942        C943   1.418       .  A
C943        C944   1.402       .  A
C943       Br950   1.924       .  S
C944        C945   1.409       .  A
C944        H949   1.081       .  S
C945       C1342   1.420       .  A
C946       C1341   1.420   1_545  A
C946       Br947   1.926       .  S
C951       C1348   1.404       .  A
C951        C956   1.402       .  A
C951        H958   1.083       .  S
C952       C1347   1.404       .  A
C952        C953   1.410       .  A
C953        C954   1.398       .  A
C953       Br960   1.919       .  S
C954       C1351   1.402       .  A
C954        H959   1.083       .  S
C955       C1350   1.402   1_545  A
C955        C956   1.409       .  A
C956       Br957   1.918       .  S
C961        C962   1.409       .  A
C961        C966   1.403       .  A
C961        H968   1.082       .  S
C962       C1359   1.419       .  A
C963       C1358   1.419       .  A
C963        C964   1.404       .  A
C963       Br970   1.922       .  S
C964       C1361   1.408   1_545  A
C964        H969   1.082       .  S
C965       C1360   1.408       .  A
C965        C966   1.418       .  A
C966       Br967   1.923       .  S
C971       C1368   1.408   1_545  A
C971        C976   1.404       .  A
C971        H978   1.080       .  S
C972       C1367   1.408       .  A
C972        C973   1.417       .  A
C973        C974   1.403       .  A
C973       Br980   1.924       .  S
C974        C975   1.409       .  A
C974        H979   1.080       .  S
C975       C1372   1.420       .  A
C976       C1371   1.420   1_545  A
C976       Br977   1.925       .  S
C981        C986   1.403       .  A
C981        H988   1.083       .  S
C982        C983   1.407   1_455  A
C983        C984   1.396       .  A
C983       Br990   1.917       .  S
C984       C1381   1.401   1_655  A
C984        H989   1.083       .  S
C985       C1380   1.401   1_445  A
C986       Br987   1.915       .  S
C991        C993   1.544       .  S
C991        C995   1.536       .  S
C991       C1390   1.548       .  S
C991       C1170   1.542       .  S
C992        C996   1.531       .  S
C992        C998   1.546       .  S
C992       C1393   1.551       .  S
C992       C1163   1.541       .  S
C993       C1001   1.383       .  A
C994       C1387   1.548   1_545  S
C994       C1005   1.380       .  A
C995       C1009   1.380       .  A
C996        C999   1.375       .  A
C997       C1388   1.551   1_545  S
C997       C1003   1.385       .  A
C998       C1006   1.386       .  A
C999       N1396   1.356   1_655  A
C999       H1408   1.082       .  S
N1000      C1395   1.356   1_455  A
N1000      C1183   1.434       .  S
C1001      H1398   1.082       .  S
H1002      C1397   1.082       .  S
C1003      H1013   1.082       .  S
N1004      C1005   1.355       .  A
C1005      H1011   1.081       .  S
C1006      H1008   1.082       .  S
N1007      C1009   1.354       .  A
C1009      H1010   1.083       .  S
H1012      C1395   1.082       .  S
C1014      C1412   1.547       .  S
C1014      C1414   1.543       .  S
C1014      C1017   1.533       .  S
C1014      C1173   1.544       .  S
C1015      C1415   1.534       .  S
C1015      C1417   1.547       .  S
C1015      C1020   1.547       .  S
C1015      C1160   1.543       .  S
C1016      C1410   1.547   1_545  S
C1016      C1420   1.381       .  A
C1016      C1019   1.397       .  A
C1017      C1028   1.376       .  A
C1017      C1020   1.397       .  A
C1018      C1410   1.543   1_545  S
C1018      C1032   1.378       .  A
C1018      C1021   1.401       .  A
C1019      C1411   1.534       .  S
C1019      C1418   1.377       .  A
C1020      C1026   1.384       .  A
C1021      C1411   1.547       .  S
C1021      C1029   1.381       .  A
C1022      C1415   1.377       .  A
C1022      N1023   1.357       .  A
C1022      H1035   1.083       .  S
N1023      C1024   1.358       .  A
N1023      C1150   1.437       .  S
C1024      C1412   1.381       .  A
C1024      H1025   1.082       .  S
C1026      N1027   1.357       .  A
C1026      H1036   1.082       .  S
N1027      C1028   1.354       .  A
N1027      C1127   1.431       .  S
C1028      H1034   1.083       .  S
C1029      N1030   1.356       .  A
C1029      H1031   1.082       .  S
N1030      C1032   1.354       .  A
N1030      C1123   1.430       .  S
C1032      H1033   1.082       .  S
C1037      C1435   1.545       .  S
C1037      C1437   1.548       .  S
C1037      C1040   1.536       .  S
C1037      C1140   1.542       .  S
C1038      C1438   1.530       .  S
C1038      C1440   1.550       .  S
C1038      C1043   1.545       .  S
C1038      C1130   1.542       .  S
C1039      C1433   1.545   1_545  S
C1039      C1443   1.383       .  A
C1040      C1051   1.380       .  A
C1041      C1433   1.548   1_545  S
C1041      C1055   1.381       .  A
C1042      C1434   1.530   1_545  S
C1042      C1441   1.375       .  A
C1043      C1049   1.385       .  A
C1044      C1434   1.550   1_545  S
C1044      C1052   1.385       .  A
C1045      C1438   1.375       .  A
C1045      N1046   1.356   1_655  A
C1045      H1058   1.082       .  S
N1046      C1180   1.434       .  S
C1047      C1435   1.383       .  A
C1047      H1048   1.082       .  S
C1049      N1050   1.355       .  A
C1049      H1059   1.082       .  S
N1050      C1100   1.433       .  S
C1051      H1057   1.083       .  S
C1052      N1053   1.357       .  A
C1052      H1054   1.082       .  S
N1053      C1101   1.435       .  S
C1055      H1056   1.081       .  S
C1060      C1062   1.547       .  S
C1060      C1064   1.531       .  S
C1060      C1459   1.543       .  S
C1060      C1143   1.544       .  S
C1061      C1065   1.534       .  S
C1061      C1067   1.549       .  S
C1061      C1462   1.546       .  S
C1061      C1133   1.543       .  S
C1062      C1070   1.381       .  A
C1062      C1065   1.396       .  A
C1063      C1456   1.543   1_545  S
C1063      C1074   1.377       .  A
C1063      C1066   1.401       .  A
C1064      C1078   1.376       .  A
C1064      C1067   1.397       .  A
C1065      C1068   1.377       .  A
C1066      C1457   1.546       .  S
C1066      C1072   1.382       .  A
C1067      C1075   1.385       .  A
C1068      N1465   1.357       .  A
C1068      H1477   1.082       .  S
N1069      C1464   1.357       .  A
N1069      C1466   1.357       .  A
N1069      C1153   1.436       .  S
C1070      N1465   1.357       .  A
C1070      H1467   1.082       .  S
H1071      C1466   1.082       .  S
C1072      N1073   1.356       .  A
C1072      H1082   1.082       .  S
N1073      C1074   1.354       .  A
N1073      C1125   1.430       .  S
C1074      H1080   1.082       .  S
C1075      N1076   1.357       .  A
C1075      H1077   1.082       .  S
N1076      C1078   1.353       .  A
N1076      C1126   1.431       .  S
C1078      H1079   1.082       .  S
H1081      C1464   1.082       .  S
Zn1083     O1092   1.983       .  S
Zn1083     O1099   2.021       .  S
Zn1084     O1089   2.043       .  S
Zn1084     O1091   2.036       .  S
Zn1084     O1095   1.979       .  S
Zn1085     O1090   1.979       .  S
Zn1085     O1096   2.012       .  S
Zn1086     O1094   2.041       .  S
Zn1086     O1097   1.974       .  S
Zn1086     O1098   2.037       .  S
Zn1086     O1087   1.963       .  S
O1089      C1101   1.275       .  A
O1090      C1102   1.270       .  A
O1091      C1100   1.275       .  A
O1092      C1102   1.270       .  A
O1094      C1103   1.275       .  A
O1097      C1104   1.269       .  A
O1098      C1105   1.275       .  A
C1102      C1128   1.449       .  S
C1104      C1124   1.446       .  S
Zn1106     O1111   2.012       .  S
Zn1106     O1122   1.975       .  S
Zn1106     O1110   1.947       .  S
Zn1107     O1112   1.975       .  S
Zn1107     O1114   2.027       .  S
Zn1107     O1118   2.025       .  S
Zn1107     O1110   1.958       .  S
Zn1108     O1113   2.024       .  S
Zn1108     O1116   1.973       .  S
Zn1108     O1119   2.023       .  S
Zn1109     O1120   2.018       .  S
Zn1109     O1121   1.989       .  S
Zn1109     O1110   1.951       .  S
O1111      C1123   1.272       .  A
O1112      C1124   1.269       .  A
O1113      C1125   1.273       .  A
O1114      C1123   1.273       .  A
O1115      C1125   1.272       .  A
O1117      C1126   1.274       .  A
O1118      C1127   1.273       .  A
O1119      C1126   1.273       .  A
O1120      C1127   1.273       .  A
O1121      C1128   1.271       .  A
O1122      C1128   1.269       .  A
C1129      C1526   1.409   1_545  A
C1129      C1134   1.405       .  A
C1129      H1136   1.082       .  S
C1130      C1525   1.409       .  A
C1130      C1131   1.418       .  A
C1131      C1132   1.403       .  A
C1131     Br1138   1.923       .  S
C1132      C1133   1.409       .  A
C1132      H1137   1.081       .  S
C1133      C1530   1.419       .  A
C1134      C1529   1.419       .  A
C1134     Br1135   1.922       .  S
C1139      C1536   1.409   1_545  A
C1139      C1144   1.404       .  A
C1139      H1146   1.080       .  S
C1140      C1535   1.409       .  A
C1140      C1141   1.418       .  A
C1141      C1142   1.402       .  A
C1141     Br1148   1.924       .  S
C1142      C1143   1.409       .  A
C1142      H1147   1.081       .  S
C1143      C1540   1.420       .  A
C1144      C1539   1.420   1_545  A
C1144     Br1145   1.926       .  S
C1149      C1546   1.404       .  A
C1149      C1154   1.402       .  A
C1149      H1156   1.083       .  S
C1150      C1545   1.404       .  A
C1150      C1151   1.410       .  A
C1151      C1152   1.398       .  A
C1151     Br1158   1.919       .  S
C1152      C1549   1.402       .  A
C1152      H1157   1.083       .  S
C1153      C1548   1.402   1_545  A
C1153      C1154   1.409       .  A
C1154     Br1155   1.918       .  S
C1159      C1160   1.409       .  A
C1159      C1164   1.403       .  A
C1159      H1166   1.082       .  S
C1160      C1557   1.419       .  A
C1161      C1556   1.419       .  A
C1161      C1162   1.404       .  A
C1161     Br1168   1.922       .  S
C1162      C1559   1.408   1_545  A
C1162      H1167   1.082       .  S
C1163      C1558   1.408       .  A
C1163      C1164   1.418       .  A
C1164     Br1165   1.923       .  S
C1169      C1566   1.408   1_545  A
C1169      C1174   1.404       .  A
C1169      H1176   1.080       .  S
C1170      C1565   1.408       .  A
C1170      C1171   1.417       .  A
C1171      C1172   1.403       .  A
C1171     Br1178   1.924       .  S
C1172      C1173   1.409       .  A
C1172      H1177   1.080       .  S
C1173      C1570   1.420       .  A
C1174      C1569   1.420   1_545  A
C1174     Br1175   1.925       .  S
C1179      C1184   1.403       .  A
C1179      H1186   1.083       .  S
C1180      C1181   1.407   1_455  A
C1181      C1182   1.396       .  A
C1181     Br1188   1.917       .  S
C1182      C1579   1.401   1_655  A
C1182      H1187   1.083       .  S
C1183      C1578   1.401   1_445  A
C1184     Br1185   1.915       .  S
C1189      C1191   1.544   1_565  S
C1189      C1193   1.536       .  S
C1189      C1368   1.542       .  S
C1190      C1194   1.531   1_565  S
C1190      C1196   1.545       .  S
C1190      C1361   1.542       .  S
C1191      C1199   1.383       .  A
C1192      C1203   1.380       .  A
C1193      C1207   1.380       .  A
C1194      C1197   1.375       .  A
C1195      C1201   1.385       .  A
C1196      C1204   1.386       .  A
N1198      C1381   1.434       .  S
C1201      H1211   1.082       .  S
N1202      C1203   1.355       .  A
C1203      H1209   1.081       .  S
C1204      H1206   1.082       .  S
N1205      C1207   1.354       .  A
C1207      H1208   1.083       .  S
C1212      C1215   1.533       .  S
C1212      C1371   1.544       .  S
C1213      C1218   1.547   1_545  S
C1213      C1358   1.543       .  S
C1214      C1217   1.397       .  A
C1215      C1226   1.376       .  A
C1215      C1218   1.397       .  A
C1216      C1230   1.378       .  A
C1216      C1219   1.401       .  A
C1218      C1224   1.384       .  A
C1219      C1227   1.381       .  A
C1220      N1221   1.357       .  A
C1220      H1233   1.083       .  S
N1221      C1222   1.358       .  A
N1221      C1348   1.437       .  S
C1222      H1223   1.082       .  S
C1224      N1225   1.357       .  A
C1224      H1234   1.082       .  S
N1225      C1226   1.354       .  A
N1225      C1325   1.431       .  S
C1226      H1232   1.082       .  S
C1227      N1228   1.356       .  A
C1227      H1229   1.082       .  S
N1228      C1230   1.354       .  A
N1228      C1321   1.430       .  S
C1230      H1231   1.082       .  S
C1235      C1238   1.536       .  S
C1235      C1338   1.542       .  S
C1236      C1241   1.545       .  S
C1236      C1328   1.542       .  S
C1238      C1249   1.380       .  A
C1239      C1253   1.381       .  A
C1241      C1247   1.385       .  A
C1242      C1250   1.385       .  A
C1243      N1244   1.356   1_655  A
C1243      H1256   1.082       .  S
N1244      C1378   1.434       .  S
C1245      H1246   1.082       .  S
C1247      N1248   1.355       .  A
C1247      H1257   1.082       .  S
N1248      C1298   1.433       .  S
C1249      H1255   1.083       .  S
C1250      N1251   1.357       .  A
C1250      H1252   1.082       .  S
N1251      C1299   1.435       .  S
C1253      H1254   1.081       .  S
C1258      C1260   1.547   1_565  S
C1258      C1262   1.531       .  S
C1258      C1341   1.544       .  S
C1259      C1263   1.534       .  S
C1259      C1265   1.549   1_545  S
C1259      C1331   1.543       .  S
C1260      C1268   1.381       .  A
C1260      C1263   1.396       .  A
C1261      C1272   1.377       .  A
C1261      C1264   1.401       .  A
C1262      C1276   1.376       .  A
C1262      C1265   1.397       .  A
C1263      C1266   1.377       .  A
C1264      C1270   1.382       .  A
C1265      C1273   1.385       .  A
N1267      C1351   1.436       .  S
C1270      N1271   1.356       .  A
C1270      H1280   1.082       .  S
N1271      C1272   1.354       .  A
N1271      C1323   1.430       .  S
C1272      H1278   1.082       .  S
C1273      N1274   1.357       .  A
C1273      H1275   1.082       .  S
N1274      C1276   1.353       .  A
N1274      C1324   1.431       .  S
C1276      H1277   1.082       .  S
Zn1281     O1484   2.020   1_554  S
Zn1281     O1290   1.983       .  S
Zn1281     O1297   2.021       .  S
Zn1282     O1287   2.043       .  S
Zn1282     O1289   2.036       .  S
Zn1282     O1293   1.979       .  S
Zn1282     O1483   1.961       .  S
Zn1283     O1288   1.979       .  S
Zn1283     O1489   2.014   1_554  S
Zn1283     O1294   2.012       .  S
Zn1284     O1292   2.041       .  S
Zn1284     O1295   1.974       .  S
Zn1284     O1296   2.036       .  S
Zn1284     O1285   1.963       .  S
O1285     Zn1480   1.961   1_554  S
O1286     Zn1479   2.020       .  S
O1287      C1299   1.275       .  A
O1288      C1300   1.270       .  A
O1289      C1298   1.275       .  A
O1290      C1300   1.270       .  A
O1291     Zn1481   2.014       .  S
O1292      C1301   1.275       .  A
O1293      C1500   1.270       .  A
O1295      C1302   1.269       .  A
O1296      C1303   1.275       .  A
C1300      C1326   1.449       .  S
C1302      O1491   1.270   1_554  A
C1302      C1322   1.446       .  S
Zn1304     O1309   2.012       .  S
Zn1304     O1511   2.011   1_554  S
Zn1304     O1320   1.975       .  S
Zn1304     O1308   1.947       .  S
Zn1305     O1310   1.975       .  S
Zn1305     O1312   2.027       .  S
Zn1305     O1316   2.025       .  S
Zn1305     O1308   1.958       .  S
Zn1306     O1311   2.024       .  S
Zn1306     O1314   1.973       .  S
Zn1306     O1317   2.023       .  S
Zn1306     O1506   1.959       .  S
Zn1307     O1513   2.020   1_554  S
Zn1307     O1318   2.018       .  S
Zn1307     O1319   1.989       .  S
Zn1307     O1308   1.951       .  S
O1308     Zn1504   1.959   1_554  S
O1309      C1321   1.272       .  A
O1310      C1322   1.269       .  A
O1311      C1323   1.273       .  A
O1312      C1321   1.273       .  A
O1313     Zn1502   2.011       .  S
O1313      C1323   1.272       .  A
O1314      C1520   1.269       .  A
O1315     Zn1505   2.020       .  S
O1315      C1324   1.274       .  A
O1316      C1325   1.273       .  A
O1317      C1324   1.273       .  A
O1318      C1325   1.273       .  A
O1319      C1326   1.271       .  A
O1320      C1326   1.269       .  A
C1322      O1512   1.269   1_554  A
C1327      C1332   1.405       .  A
C1327      H1334   1.082       .  S
C1328      C1329   1.418       .  A
C1329      C1330   1.403       .  A
C1329     Br1336   1.923       .  S
C1330      C1331   1.409   1_565  A
C1330      H1335   1.081       .  S
C1332     Br1333   1.922       .  S
C1337      C1342   1.404       .  A
C1337      H1344   1.080       .  S
C1338      C1339   1.418       .  A
C1339      C1340   1.402       .  A
C1339     Br1346   1.924       .  S
C1340      C1341   1.409       .  A
C1340      H1345   1.081       .  S
C1342     Br1343   1.926       .  S
C1347      C1352   1.402       .  A
C1347      H1354   1.083       .  S
C1348      C1349   1.410   1_545  A
C1349      C1350   1.398       .  A
C1349     Br1356   1.919       .  S
C1350      H1355   1.083       .  S
C1351      C1352   1.409       .  A
C1352     Br1353   1.918       .  S
C1357      C1358   1.409   1_565  A
C1357      C1362   1.403       .  A
C1357      H1364   1.082       .  S
C1359      C1360   1.404       .  A
C1359     Br1366   1.922       .  S
C1360      H1365   1.082       .  S
C1361      C1362   1.418       .  A
C1362     Br1363   1.923       .  S
C1367      C1372   1.404       .  A
C1367      H1374   1.080       .  S
C1368      C1369   1.417       .  A
C1369      C1370   1.403       .  A
C1369     Br1376   1.924       .  S
C1370      C1371   1.409       .  A
C1370      H1375   1.080       .  S
C1372     Br1373   1.925       .  S
C1377      C1382   1.403       .  A
C1377      H1384   1.083       .  S
C1378      C1379   1.407   1_445  A
C1379      C1380   1.396       .  A
C1379     Br1386   1.917       .  S
C1380      H1385   1.083       .  S
C1382     Br1383   1.915       .  S
C1387      C1389   1.544   1_565  S
C1387      C1391   1.536       .  S
C1387      C1566   1.542       .  S
C1388      C1392   1.531   1_565  S
C1388      C1394   1.545       .  S
C1388      C1559   1.542       .  S
C1389      C1397   1.383       .  A
C1390      C1401   1.380       .  A
C1391      C1405   1.380       .  A
C1392      C1395   1.375       .  A
C1393      C1399   1.385       .  A
C1394      C1402   1.386       .  A
N1396      C1579   1.434       .  S
C1399      H1409   1.082       .  S
N1400      C1401   1.355       .  A
C1401      H1407   1.081       .  S
C1402      H1404   1.082       .  S
N1403      C1405   1.354       .  A
C1405      H1406   1.083       .  S
C1410      C1413   1.533       .  S
C1410      C1569   1.544       .  S
C1411      C1416   1.547   1_545  S
C1411      C1556   1.543       .  S
C1412      C1415   1.397       .  A
C1413      C1424   1.376       .  A
C1413      C1416   1.397       .  A
C1414      C1428   1.378       .  A
C1414      C1417   1.401       .  A
C1416      C1422   1.384       .  A
C1417      C1425   1.381       .  A
C1418      N1419   1.357       .  A
C1418      H1431   1.083       .  S
N1419      C1420   1.358       .  A
N1419      C1546   1.437       .  S
C1420      H1421   1.082       .  S
C1422      N1423   1.357       .  A
C1422      H1432   1.082       .  S
N1423      C1424   1.354       .  A
N1423      C1523   1.431       .  S
C1424      H1430   1.082       .  S
C1425      N1426   1.356       .  A
C1425      H1427   1.082       .  S
N1426      C1428   1.354       .  A
N1426      C1519   1.430       .  S
C1428      H1429   1.082       .  S
C1433      C1436   1.536       .  S
C1433      C1536   1.542       .  S
C1434      C1439   1.545       .  S
C1434      C1526   1.542       .  S
C1436      C1447   1.380       .  A
C1437      C1451   1.381       .  A
C1439      C1445   1.385       .  A
C1440      C1448   1.385       .  A
C1441      N1442   1.356   1_655  A
C1441      H1454   1.082       .  S
N1442      C1576   1.434       .  S
C1443      H1444   1.082       .  S
C1445      N1446   1.355       .  A
C1445      H1455   1.082       .  S
N1446      C1496   1.433       .  S
C1447      H1453   1.083       .  S
C1448      N1449   1.357       .  A
C1448      H1450   1.082       .  S
N1449      C1497   1.435       .  S
C1451      H1452   1.081       .  S
C1456      C1458   1.547   1_565  S
C1456      C1460   1.531       .  S
C1456      C1539   1.544       .  S
C1457      C1461   1.534       .  S
C1457      C1463   1.549   1_545  S
C1457      C1529   1.543       .  S
C1458      C1466   1.381       .  A
C1458      C1461   1.396       .  A
C1459      C1470   1.377       .  A
C1459      C1462   1.401       .  A
C1460      C1474   1.376       .  A
C1460      C1463   1.397       .  A
C1461      C1464   1.377       .  A
C1462      C1468   1.382       .  A
C1463      C1471   1.385       .  A
N1465      C1549   1.436       .  S
C1468      N1469   1.356       .  A
C1468      H1478   1.082       .  S
N1469      C1470   1.354       .  A
N1469      C1521   1.430       .  S
C1470      H1476   1.082       .  S
C1471      N1472   1.357       .  A
C1471      H1473   1.082       .  S
N1472      C1474   1.353       .  A
N1472      C1522   1.431       .  S
C1474      H1475   1.082       .  S
Zn1479     O1488   1.983       .  S
Zn1479     O1495   2.021       .  S
Zn1480     O1485   2.043       .  S
Zn1480     O1487   2.036       .  S
Zn1480     O1491   1.979       .  S
Zn1481     O1486   1.979       .  S
Zn1481     O1492   2.012       .  S
Zn1482     O1490   2.041       .  S
Zn1482     O1493   1.974       .  S
Zn1482     O1494   2.036       .  S
Zn1482     O1483   1.963       .  S
O1485      C1497   1.275       .  A
O1486      C1498   1.270       .  A
O1487      C1496   1.275       .  A
O1488      C1498   1.270       .  A
O1490      C1499   1.275       .  A
O1493      C1500   1.269       .  A
O1494      C1501   1.275       .  A
C1498      C1524   1.449       .  S
C1500      C1520   1.446       .  S
Zn1502     O1507   2.012       .  S
Zn1502     O1518   1.975       .  S
Zn1502     O1506   1.947       .  S
Zn1503     O1508   1.975       .  S
Zn1503     O1510   2.027       .  S
Zn1503     O1514   2.025       .  S
Zn1503     O1506   1.958       .  S
Zn1504     O1509   2.024       .  S
Zn1504     O1512   1.973       .  S
Zn1504     O1515   2.023       .  S
Zn1505     O1516   2.018       .  S
Zn1505     O1517   1.989       .  S
Zn1505     O1506   1.951       .  S
O1507      C1519   1.272       .  A
O1508      C1520   1.269       .  A
O1509      C1521   1.273       .  A
O1510      C1519   1.273       .  A
O1511      C1521   1.272       .  A
O1513      C1522   1.274       .  A
O1514      C1523   1.273       .  A
O1515      C1522   1.273       .  A
O1516      C1523   1.273       .  A
O1517      C1524   1.271       .  A
O1518      C1524   1.269       .  A
C1525      C1530   1.405       .  A
C1525      H1532   1.082       .  S
C1526      C1527   1.418       .  A
C1527      C1528   1.403       .  A
C1527     Br1534   1.923       .  S
C1528      C1529   1.409   1_565  A
C1528      H1533   1.081       .  S
C1530     Br1531   1.922       .  S
C1535      C1540   1.404       .  A
C1535      H1542   1.080       .  S
C1536      C1537   1.418       .  A
C1537      C1538   1.402       .  A
C1537     Br1544   1.924       .  S
C1538      C1539   1.409       .  A
C1538      H1543   1.081       .  S
C1540     Br1541   1.926       .  S
C1545      C1550   1.402       .  A
C1545      H1552   1.083       .  S
C1546      C1547   1.410   1_545  A
C1547      C1548   1.398       .  A
C1547     Br1554   1.919       .  S
C1548      H1553   1.083       .  S
C1549      C1550   1.409       .  A
C1550     Br1551   1.918       .  S
C1555      C1556   1.409   1_565  A
C1555      C1560   1.403       .  A
C1555      H1562   1.082       .  S
C1557      C1558   1.404       .  A
C1557     Br1564   1.922       .  S
C1558      H1563   1.082       .  S
C1559      C1560   1.418       .  A
C1560     Br1561   1.923       .  S
C1565      C1570   1.404       .  A
C1565      H1572   1.080       .  S
C1566      C1567   1.417       .  A
C1567      C1568   1.403       .  A
C1567     Br1574   1.924       .  S
C1568      C1569   1.409       .  A
C1568      H1573   1.080       .  S
C1570     Br1571   1.925       .  S
C1575      C1580   1.403       .  A
C1575      H1582   1.083       .  S
C1576      C1577   1.407   1_445  A
C1577      C1578   1.396       .  A
C1577     Br1584   1.917       .  S
C1578      H1583   1.083       .  S
C1580     Br1581   1.915       .  S
