geometry optimzed in LAMMPS
_audit_creation_date              2020-11-30 
_audit_creation_method            'lammps2cif' 
_symmetry_space_group_name_H-M    'P1' 
_symmetry_Int_Tables_number       1 
_symmetry_cell_setting            triclinic 
loop_ 
_symmetry_equiv_pos_as_xyz 
  x,y,z 
_cell_length_a                    29.35110676 
_cell_length_b                    29.32620623139483 
_cell_length_c                    29.210730337609846 
_cell_angle_alpha                 89.86048049666847 
_cell_angle_beta                  90.12066418077892 
_cell_angle_gamma                 90.81233777967506 
loop_ 
_atom_site_label 
_atom_site_type_symbol 
_atom_site_fract_x 
_atom_site_fract_y 
_atom_site_fract_z 
_atom_site_charge 
O1          O  0.54360918  0.06141258  0.87559495    -0.84900
O2          O  0.53972763  0.06198114  0.61519618    -0.85100
O3          O  0.63235815  0.04715780  0.73405500    -0.86700
O4          O  0.52916779  0.15166990  0.75502544    -0.85500
O5          O  0.45080001  0.15137352  0.75433976    -0.85100
O6          O  0.63143954  0.96880348  0.73686993    -0.86500
O7          O  0.57451286  0.10536786  0.67109722    -0.84900
O8          O  0.58651185  0.09510744  0.81860014    -0.84500
Zr9        Zr  0.55418829  0.07323343  0.74509620     2.84300
O10         O  0.48951365  0.07257923  0.69820727    -1.06500
O11         O  0.55335126  0.00957219  0.79344065    -1.07200
C12         C  0.57651873  0.08727854  0.86088715     1.08200
C13         C  0.56588775  0.09503710  0.62907348     1.08200
C14         C  0.65151460  0.00784249  0.73120047     1.11100
C15         C  0.49014400  0.17108392  0.75883368     1.08900
H16         H  0.57923448  0.00735944  0.67911818     0.34500
O17         O  0.55337432  0.00768778  0.69944442    -1.27400
H18         H  0.48945411  0.09947871  0.81146876     0.34100
O19         O  0.48919535  0.07327246  0.79159400    -1.29100
O20         O  0.43935031  0.94935861  0.61651390    -0.84900
O21         O  0.42991791  0.96161206  0.87741741    -0.86400
O22         O  0.57453466  0.91077518  0.67568679    -0.85000
O23         O  0.40453591  0.10350261  0.66997370    -0.85000
O24         O  0.39299589  0.09664172  0.81691731    -0.84700
O25         O  0.58398453  0.92457828  0.82275021    -0.84500
O26         O  0.44782475  0.86515117  0.75717770    -0.84900
O27         O  0.34467117  0.96856281  0.73817644    -0.84400
O28         O  0.52620336  0.86573938  0.75659745    -0.85400
O29         O  0.34583448  0.04698970  0.73731668    -0.84600
O30         O  0.54005193  0.95122469  0.61795748    -0.85000
O31         O  0.54194081  0.95991563  0.87839010    -0.84700
O32         O  0.43426974  0.06283155  0.87445186    -0.84400
O33         O  0.43911902  0.06081734  0.61433571    -0.84800
O34         O  0.40265609  0.90910811  0.67358216    -0.85100
O35         O  0.38884918  0.92440045  0.82133006    -0.86400
Zr36       Zr  0.48885565  0.00656380  0.65290924     2.83100
Zr37       Zr  0.48783493  0.00984055  0.83965276     2.83500
Zr38       Zr  0.55255753  0.94411672  0.74820287     2.84100
Zr39       Zr  0.42467664  0.07274595  0.74438372     2.83400
Zr40       Zr  0.42273519  0.94324195  0.74727597     2.84200
O41         O  0.42321933  0.00891783  0.79231410    -1.07000
O42         O  0.48787547  0.94285872  0.70153527    -1.06500
C43         C  0.41282428  0.91698562  0.63126384     1.08200
C44         C  0.39716170  0.93506983  0.86341058     1.10800
C45         C  0.56633564  0.91955897  0.63324562     1.08400
C46         C  0.41336607  0.09343981  0.62804780     1.08700
C47         C  0.40256304  0.08908951  0.85929265     1.08300
C48         C  0.57427379  0.93375165  0.86473722     1.07900
C49         C  0.48693388  0.84584239  0.76000524     1.08300
C50         C  0.32560474  0.00776741  0.73478133     1.07800
H51         H  0.48699451  0.91828365  0.81537732     0.34500
O52         O  0.48738070  0.94410001  0.79480201    -1.28100
H53         H  0.39753802  0.00661915  0.67850192     0.34500
O54         O  0.42364269  0.00706477  0.69864552    -1.29500
C55         C  0.69555429  0.21686335  0.50241588     0.88100
C56         C  0.67739029  0.18492015  0.54004309    -0.52200
C57         C  0.63115115  0.17918838  0.53856949     0.11000
C58         C  0.60762134  0.20606749  0.50024038     0.22000
C59         C  0.67796562  0.19620517  0.45746462    -0.52900
C60         C  0.63186783  0.18994447  0.45660811     0.11100
C61         C  0.66993981  0.26125232  0.50853611    -0.52400
C62         C  0.62378361  0.25590428  0.50781766     0.11700
H63         H  0.69896324  0.16787191  0.56482868     0.16200
H64         H  0.56999683  0.20131533  0.49928761     0.01900
H65         H  0.70016341  0.18471778  0.43021155     0.16500
H66         H  0.68693562  0.29421364  0.51221221     0.16300
O67         O  0.58309185  0.11384988  0.31891286    -0.84900
O68         O  0.41050680  0.91833255  0.32164761    -0.85100
O69         O  0.44500327  0.07090270  0.37541465    -0.86700
O70         O  0.54703351  0.96215985  0.37822867    -0.85500
O71         O  0.58094437  0.91915390  0.32243211    -0.85100
O72         O  0.40991168  0.11173650  0.31833608    -0.86500
O73         O  0.44632148  0.96065308  0.37775589    -0.84900
O74         O  0.54638670  0.07356811  0.37591706    -0.84500
Zr75       Zr  0.49657313  0.01621353  0.33987596     2.84300
O76         O  0.49506527  0.95025006  0.29432353    -1.06500
O77         O  0.49721583  0.08041934  0.29197120    -1.07200
C78         C  0.57307300  0.10583823  0.36118150     1.08200
C79         C  0.41989986  0.92790450  0.36371007     1.08200
C80         C  0.41835907  0.10249310  0.36059199     1.11100
C81         C  0.57271398  0.92943567  0.36449700     1.08900
H82         H  0.40583208  0.01531798  0.31359950     0.34500
O83         O  0.43180337  0.01526085  0.29341980    -1.27400
H84         H  0.58771227  0.01581944  0.31363402     0.34100
O85         O  0.56142314  0.01555836  0.29373665    -1.29100
O86         O  0.39879175  0.92839016  0.17347458    -0.84900
O87         O  0.59504468  0.09974011  0.17143435    -0.86400
O88         O  0.35342653  0.05403452  0.25559650    -0.85000
O89         O  0.53289976  0.87099242  0.23786357    -0.85000
O90         O  0.63851067  0.97519747  0.25370435    -0.84700
O91         O  0.45916618  0.15818767  0.23884098    -0.84500
O92         O  0.44224702  0.06490757  0.11566016    -0.84900
O93         O  0.55132426  0.96405352  0.11754492    -0.84400
O94         O  0.40104490  0.10077582  0.17157363    -0.85400
O95         O  0.59147871  0.92835749  0.17472125    -0.84600
O96         O  0.35236746  0.97560513  0.25675727    -0.85000
O97         O  0.53752044  0.15842474  0.23748825    -0.84700
O98         O  0.63988422  0.05366342  0.25313907    -0.84400
O99         O  0.45457675  0.87103766  0.23693302    -0.84800
O100        O  0.44207085  0.96230301  0.11692729    -0.85100
O101        O  0.55353816  0.06313511  0.11534932    -0.86400
Zr102      Zr  0.43054728  0.94996068  0.24725417     2.83100
Zr103      Zr  0.56200800  0.07994093  0.24569478     2.83500
Zr104      Zr  0.43228333  0.07955723  0.24560265     2.84100
Zr105      Zr  0.55960310  0.94978986  0.24794434     2.83400
Zr106      Zr  0.49641218  0.01452364  0.15353100     2.84200
O107        O  0.56081410  0.01431920  0.20083308    -1.07000
O108        O  0.43103500  0.01440213  0.19982755    -1.06500
C109        C  0.40928402  0.93619362  0.13132500     1.08200
C110        C  0.58641534  0.08950995  0.12930037     1.10800
C111        C  0.33328768  0.01485820  0.26001396     1.08400
C112        C  0.49349050  0.85126493  0.23350399     1.08700
C113        C  0.65887046  0.01436588  0.25587255     1.08300
C114        C  0.49851913  0.17802833  0.23548106     1.07900
C115        C  0.41046770  0.09158512  0.12954372     1.08300
C116        C  0.58282659  0.93746057  0.13246653     1.07800
H117        H  0.49746665  0.10612607  0.17845723     0.34500
O118        O  0.49712489  0.08003568  0.19866537    -1.28100
H119        H  0.49500120  0.92394752  0.18050253     0.34500
O120        O  0.49524850  0.95004662  0.20052329    -1.29500
C121        C  0.28665847  0.80949133  0.00236420     0.88100
C122        C  0.30658431  0.82894794  0.95773413    -0.52200
C123        C  0.31307905  0.87513248  0.95867963     0.11000
C124        C  0.29768913  0.89752720  0.00361903     0.22000
C125        C  0.31929791  0.82601659  0.04005339    -0.52900
C126        C  0.32512597  0.87226446  0.04038516     0.11100
C127        C  0.24257878  0.83496182  0.01035523    -0.52400
C128        C  0.24793582  0.88112467  0.01138491     0.11700
H129        H  0.31753177  0.80783821  0.92940083     0.16200
H130        H  0.30253439  0.93518054  0.00421555     0.01900
H131        H  0.33668811  0.80339191  0.06362146     0.16500
H132        H  0.20968139  0.81780740  0.01363690     0.16300
C133        C  0.69661488  0.81270718  0.99757394     0.88100
C134        C  0.67248726  0.82975529  0.04072696    -0.52200
C135        C  0.66491316  0.87562094  0.03997241     0.11000
C136        C  0.68280688  0.90022510  0.99706862     0.22000
C137        C  0.66657388  0.82846315  0.95762949    -0.52900
C138        C  0.65913101  0.87434091  0.95767881     0.11100
C139        C  0.74023152  0.84123876  0.99386423    -0.52400
C140        C  0.73333873  0.88698030  0.99394156     0.11700
H141        H  0.66055487  0.80745968  0.06807552     0.16200
H142        H  0.67684810  0.93757097  0.99671014     0.01900
H143        H  0.65155180  0.80542304  0.93254337     0.16500
H144        H  0.77388384  0.82653840  0.99075944     0.16300
C145        C  0.69228364  0.80552661  0.49826983     0.88100
C146        C  0.67736635  0.83582214  0.45809097    -0.52200
C147        C  0.63166946  0.84421191  0.45778686     0.11000
C148        C  0.60510887  0.82107304  0.49706653     0.22000
C149        C  0.67533915  0.83015341  0.54125551    -0.52900
C150        C  0.62964303  0.83860813  0.54018161     0.11100
C151        C  0.66294361  0.76243459  0.49450409    -0.52400
C152        C  0.61741213  0.77022252  0.49415654     0.11700
H153        H  0.70083802  0.85029299  0.43309005     0.16200
H154        H  0.56791904  0.82769916  0.49641575     0.01900
H155        H  0.69757561  0.84148437  0.56887453     0.16500
H156        H  0.67697139  0.72844027  0.49167791     0.16300
C157        C  0.28673398  0.21105007  0.99634276     0.88100
C158        C  0.31704641  0.19611834  0.03640121    -0.52200
C159        C  0.32642861  0.15065608  0.03588856     0.11000
C160        C  0.30436738  0.12429525  0.99596620     0.22000
C161        C  0.31195920  0.19559748  0.95319618    -0.52900
C162        C  0.32149590  0.15013664  0.95343306     0.11100
C163        C  0.24430771  0.18063074  0.99926862    -0.52400
C164        C  0.25329597  0.13528755  0.99882374     0.11700
H165        H  0.33062381  0.21939546  0.06206832     0.16200
H166        H  0.31191104  0.08725283  0.99595998     0.01900
H167        H  0.32282124  0.21863832  0.92603122     0.16500
H168        H  0.20998501  0.19374849  0.00226356     0.16300
C169        C  0.70043130  0.21305314  0.99031919     0.88100
C170        C  0.66840036  0.19653311  0.95201778    -0.52200
C171        C  0.66177429  0.15032947  0.95200164     0.11000
C172        C  0.68793293  0.12504650  0.98973973     0.22000
C173        C  0.67915842  0.19428668  0.03465229    -0.52900
C174        C  0.67183904  0.14819689  0.03407917     0.11100
C175        C  0.74422753  0.18669843  0.98361629    -0.52400
C176        C  0.73813417  0.14055891  0.98293343     0.11700
H177        H  0.65190189  0.21918476  0.92783497     0.16200
H178        H  0.68248888  0.08746055  0.98944871     0.01900
H179        H  0.66799232  0.21586580  0.06252952     0.16500
H180        H  0.77745173  0.20327243  0.98076153     0.16300
C181        C  0.29161691  0.21479904  0.49592934     0.88100
C182        C  0.30843809  0.19000895  0.45301970    -0.52200
C183        C  0.35431777  0.18264367  0.45354287     0.11000
C184        C  0.37905431  0.20122868  0.49599551     0.22000
C185        C  0.30769583  0.18546560  0.53624707    -0.52900
C186        C  0.35353431  0.17818015  0.53588538     0.11100
C187        C  0.32001532  0.25859387  0.49876496    -0.52400
C188        C  0.36571311  0.25169676  0.49846629     0.11700
H189        H  0.28605182  0.17777786  0.42590772     0.16200
H190        H  0.41639528  0.19540080  0.49623873     0.01900
H191        H  0.28492243  0.17070305  0.56173314     0.16500
H192        H  0.30530584  0.29228308  0.50169989     0.16300
C193        C  0.29092836  0.80551037  0.48969443     0.88100
C194        C  0.30857695  0.82709118  0.53421345    -0.52200
C195        C  0.35477560  0.83265675  0.53534701     0.11000
C196        C  0.37907803  0.81507582  0.49228173     0.22000
C197        C  0.30986371  0.83620776  0.45138663    -0.52900
C198        C  0.35617611  0.84145265  0.45313353     0.11100
C199        C  0.31589460  0.76070622  0.48499878    -0.52400
C200        C  0.36207825  0.76528051  0.48589179     0.11700
H201        H  0.28638267  0.83943848  0.56106226     0.16200
H202        H  0.41676359  0.81925196  0.49340490     0.01900
H203        H  0.28868452  0.85322901  0.42624289     0.16500
H204        H  0.29834894  0.72794263  0.48216769     0.16300
O205        O  0.84675674  0.76944113  0.45666082    -0.84900
O206        O  0.03377164  0.75233127  0.63588195    -0.85100
O207        O  0.89572005  0.68761143  0.57903320    -0.86700
O208        O  0.90759322  0.83416506  0.59136429    -0.85500
O209        O  0.94101490  0.89094902  0.54793001    -0.85100
O210        O  0.93673743  0.63194957  0.54293418    -0.86500
O211        O  0.95546097  0.75093239  0.63735471    -0.84900
O212        O  0.84887551  0.76941691  0.53534998    -0.84500
Zr213      Zr  0.92824540  0.76128492  0.55880027     2.84300
O214        O  0.99284705  0.80863942  0.55752507    -1.06500
O215        O  0.92674864  0.71480829  0.49392672    -1.07200
C216        C  0.82808622  0.77277883  0.49652200     1.08200
C217        C  0.99507458  0.74763283  0.65637198     1.08200
C218        C  0.90466978  0.64585051  0.56945221     1.11100
C219        C  0.91542932  0.87628708  0.58104077     1.08900
H220        H  0.99308596  0.69493049  0.58329828     0.34500
O221        O  0.99274042  0.71514406  0.55721064    -1.27400
H222        H  0.90063750  0.82761605  0.49400485     0.34100
O223        O  0.92668686  0.80794627  0.49350132    -1.29100
O224        O  0.13546258  0.77225460  0.52956238    -0.84900
O225        O  0.94888156  0.75351086  0.34936917    -0.86400
O226        O  0.04648748  0.63279749  0.54375858    -0.85000
O227        O  0.04263733  0.89276031  0.54623065    -0.85000
O228        O  0.94016896  0.89071119  0.43686892    -0.84700
O229        O  0.93445218  0.63080028  0.44356806    -0.84500
O230        O  0.08747443  0.69078995  0.40448622    -0.84900
O231        O  0.07593499  0.83700869  0.39274053    -0.84400
O232        O  0.04696310  0.63377743  0.44107320    -0.85400
O233        O  0.04089377  0.89272857  0.43460524    -0.84600
O234        O  0.08839888  0.68959872  0.57901307    -0.85000
O235        O  0.89128280  0.68636871  0.40964598    -0.84700
O236        O  0.90271860  0.83377856  0.39709385    -0.84400
O237        O  0.07748088  0.83693146  0.58869810    -0.84800
O238        O  0.13370742  0.77407015  0.45084974    -0.85100
O239        O  0.02727893  0.75548214  0.34818410    -0.86400
Zr240      Zr  0.05736945  0.76289693  0.55648101     2.83100
Zr241      Zr  0.92475355  0.76071366  0.42878302     2.83500
Zr242      Zr  0.99171862  0.66917798  0.49209528     2.84100
Zr243      Zr  0.99142724  0.85509875  0.49186301     2.83400
Zr244      Zr  0.05488233  0.76347148  0.42622607     2.84200
O245        O  0.98963646  0.80808909  0.42715405    -1.07000
O246        O  0.05656951  0.71690945  0.49122206    -1.06500
C247        C  0.15422218  0.77682485  0.48987017     1.08200
C248        C  0.98781395  0.75167960  0.32904409     1.10800
C249        C  0.07856920  0.64741778  0.57066547     1.08400
C250        C  0.06862153  0.87880746  0.57896841     1.08700
C251        C  0.91255458  0.87587208  0.40561772     1.08300
C252        C  0.90069300  0.64439733  0.41865987     1.07900
C253        C  0.07884516  0.64861328  0.41420371     1.08300
C254        C  0.06702021  0.87896738  0.40186288     1.07800
H255        H  0.98962229  0.69542800  0.40077525     0.34500
O256        O  0.99010121  0.71536510  0.42699931    -1.28100
H257        H  0.08229576  0.83050014  0.49097120     0.34500
O258        O  0.05626492  0.81003804  0.49134613    -1.29500
O259        O  0.85096478  0.24907988  0.46296767    -0.84900
O260        O  0.03544065  0.27224001  0.64353347    -0.85100
O261        O  0.90788245  0.18663596  0.59918919    -0.86700
O262        O  0.89930828  0.33366729  0.58902961    -0.91100
O263        O  0.93992438  0.39020265  0.55169726    -0.85100
O264        O  0.94336442  0.13107985  0.55740974    -0.86500
O265        O  0.95713643  0.27040990  0.64472914    -0.84900
O266        O  0.85208121  0.24880006  0.54166669    -0.84500
Zr267      Zr  0.93028215  0.26046436  0.56661913     2.84300
O268        O  0.99507595  0.30810765  0.56578178    -1.06500
O269        O  0.92890956  0.21428603  0.50141452    -1.07200
C270        C  0.83205822  0.24491754  0.50255902     1.08200
C271        C  0.99656895  0.27479538  0.66380971     1.08200
C272        C  0.91686107  0.14466415  0.58993203     1.11100
C273        C  0.90838534  0.37573213  0.57918741     1.08900
H274        H  0.99530556  0.19741526  0.59375342     0.34500
O275        O  0.99503567  0.21541984  0.56607568    -1.27400
H276        H  0.90161910  0.32426832  0.50117693     0.34100
O277        O  0.92904698  0.30651781  0.50114844    -1.29100
O278        O  0.13724532  0.25069868  0.53713617    -0.84900
O279        O  0.95258979  0.27281828  0.35727032    -0.86400
O280        O  0.04516324  0.13283928  0.55502527    -0.85000
O281        O  0.05101424  0.39183305  0.55020345    -0.85000
O282        O  0.93962242  0.39002631  0.44774400    -0.84700
O283        O  0.94088347  0.13096308  0.44727687    -0.84500
O284        O  0.08099128  0.18886889  0.40391180    -0.84900
O285        O  0.08943716  0.33558382  0.41176695    -0.84400
O286        O  0.04574399  0.13253840  0.44654944    -0.85400
O287        O  0.04801250  0.39115725  0.44761869    -0.84600
O288        O  0.08182514  0.18945309  0.59601768    -0.85000
O289        O  0.90571581  0.18671162  0.40501832    -0.84700
O290        O  0.89755707  0.33343952  0.41228684    -0.84400
O291        O  0.09344300  0.33636917  0.58534090    -0.84800
O292        O  0.13605751  0.25090750  0.45846791    -0.85100
O293        O  0.03085185  0.27396019  0.35598112    -0.86400
Zr294      Zr  0.05993010  0.26261193  0.56455255     2.83100
Zr295      Zr  0.92848438  0.26049987  0.43599023     2.83500
Zr296      Zr  0.99347979  0.16867716  0.50070569     2.84100
Zr297      Zr  0.99427646  0.35412317  0.50018610     2.83400
Zr298      Zr  0.05771655  0.26200825  0.43411712     2.84200
O299        O  0.99320739  0.30771817  0.43518218    -1.07000
O300        O  0.05815994  0.21614395  0.49962823    -1.06500
C301        C  0.15609283  0.24661672  0.49751951     1.08200
C302        C  0.99132906  0.27789628  0.33707405     1.10800
C303        C  0.07227667  0.14744044  0.58681396     1.08400
C304        C  0.08407460  0.37830804  0.57616333     1.08700
C305        C  0.90767030  0.37558136  0.42052928     1.08300
C306        C  0.91412354  0.14482300  0.41506241     1.07900
C307        C  0.07285329  0.14684713  0.41450973     1.08300
C308        C  0.07987522  0.37736517  0.42073645     1.07800
H309        H  0.99272818  0.19655973  0.40694760     0.34500
O310        O  0.99298643  0.21474761  0.43443830    -1.28100
H311        H  0.08703888  0.32659670  0.49862084     0.34500
O312        O  0.05944876  0.30832380  0.49911393    -1.29500
C313        C  0.78629223  0.51291284  0.69413975     0.88100
C314        C  0.81539928  0.47197862  0.68091848    -0.52200
C315        C  0.82431058  0.47000643  0.63514193     0.11000
C316        C  0.80302036  0.50862922  0.60688906     0.22000
C317        C  0.81231340  0.55470383  0.67582577    -0.52900
C318        C  0.82133115  0.55208734  0.63015795     0.11100
C319        C  0.74345769  0.50884438  0.66483053    -0.52400
C320        C  0.75200512  0.50684661  0.61916354     0.11700
H321        H  0.82865738  0.44761677  0.70547683     0.16200
H322        H  0.81023474  0.50675133  0.56960607     0.01900
H323        H  0.82402062  0.58281343  0.69720017     0.16500
H324        H  0.70921320  0.50711532  0.67890838     0.16300
C325        C  0.19568447  0.51810841  0.70134546     0.88100
C326        C  0.16569230  0.55703276  0.68380674    -0.52200
C327        C  0.16038219  0.55682317  0.63723132     0.11000
C328        C  0.18586430  0.51834385  0.61285462     0.22000
C329        C  0.17313606  0.47440761  0.68268748    -0.52900
C330        C  0.16736784  0.47472343  0.63633108     0.11100
C331        C  0.24049078  0.52350741  0.67561717    -0.52400
C332        C  0.23587134  0.52398352  0.62926238     0.11700
H333        H  0.14945056  0.58160524  0.70600075     0.16200
H334        H  0.18159760  0.51839363  0.57504306     0.01900
H335        H  0.16054134  0.44690172  0.70443501     0.16500
H336        H  0.27333577  0.52560299  0.69279917     0.16300
C337        C  0.79433278  0.01368511  0.28716678     0.88100
C338        C  0.80872129  0.97064267  0.31296401    -0.52200
C339        C  0.85397671  0.97067709  0.32361471     0.11000
C340        C  0.88064434  0.01296529  0.30715818     0.22000
C341        C  0.80939516  0.05348781  0.31789488    -0.52900
C342        C  0.85465828  0.05274565  0.32857713     0.11100
C343        C  0.82507727  0.01660063  0.24529367    -0.52400
C344        C  0.87027094  0.01594801  0.25557546     0.11700
H345        H  0.78518581  0.94358730  0.32323393     0.16200
H346        H  0.91754729  0.01276250  0.31575789     0.01900
H347        H  0.78632237  0.07899227  0.33097893     0.16500
H348        H  0.81232752  0.01963885  0.21045878     0.16300
C349        C  0.78775180  0.00569400  0.69956174     0.88100
C350        C  0.80725541  0.04930937  0.67727854    -0.52200
C351        C  0.85344195  0.04873733  0.67159530     0.11000
C352        C  0.87584714  0.00508057  0.68984390     0.22000
C353        C  0.80441516  0.96665055  0.66911670    -0.52900
C354        C  0.85074089  0.96668542  0.66392135     0.11100
C355        C  0.81344336  0.00034407  0.74458894    -0.52400
C356        C  0.85955795  0.99962334  0.73993215     0.11700
H357        H  0.78620199  0.07689409  0.66482348     0.16200
H358        H  0.91347005  0.00478777  0.68563541     0.01900
H359        H  0.78183065  0.94209058  0.65251713     0.16500
H360        H  0.79646021  0.99826607  0.77757145     0.16300
C361        C  0.78787676  0.50655493  0.29341293     0.88100
C362        C  0.80933199  0.55032062  0.31312726    -0.52200
C363        C  0.81584194  0.54872215  0.35937264     0.11000
C364        C  0.79882585  0.50387793  0.38171779     0.22000
C365        C  0.81921462  0.46806543  0.30936924    -0.52900
C366        C  0.82510576  0.46693488  0.35582793     0.11100
C367        C  0.74354311  0.49909629  0.31945135    -0.52400
C368        C  0.74872161  0.49726928  0.36572948     0.11700
H369        H  0.82102160  0.57872264  0.29204554     0.16200
H370        H  0.80358223  0.50277280  0.41945407     0.01900
H371        H  0.83578678  0.44463143  0.28619767     0.16500
H372        H  0.71057724  0.49672489  0.30254352     0.16300
C373        C  0.20271009  0.51151647  0.30077485     0.88100
C374        C  0.17488527  0.46997663  0.31680648    -0.52200
C375        C  0.16408674  0.47160454  0.36209101     0.11000
C376        C  0.18249781  0.51390670  0.38729717     0.22000
C377        C  0.17421098  0.55290911  0.31393595    -0.52900
C378        C  0.16348065  0.55393210  0.35933669     0.11100
C379        C  0.24443679  0.51352393  0.33189139    -0.52400
C380        C  0.23397085  0.51444689  0.37723982     0.11700
H381        H  0.16352253  0.44266299  0.29424337     0.16200
H382        H  0.17380089  0.51493836  0.42428941     0.01900
H383        H  0.16262015  0.57827787  0.28953712     0.16500
H384        H  0.27925727  0.51480925  0.31927850     0.16300
C385        C  0.19762627  0.01690393  0.29278119     0.88100
C386        C  0.18272237  0.05537448  0.32483497    -0.52200
C387        C  0.13660539  0.05619437  0.33130394     0.11000
C388        C  0.10995427  0.01921960  0.30483915     0.22000
C389        C  0.17774598  0.97303621  0.31422105    -0.52900
C390        C  0.13174345  0.97453291  0.32107952     0.11100
C391        C  0.17100703  0.02414214  0.24864929    -0.52400
C392        C  0.12508694  0.02576028  0.25453741     0.11700
H393        H  0.20629238  0.07898425  0.34145260     0.16200
H394        H  0.07248249  0.02022312  0.31004048     0.01900
H395        H  0.19844101  0.94458698  0.32522509     0.16500
H396        H  0.18720982  0.02658760  0.21528887     0.16300
C397        C  0.18993944  0.00945372  0.70420454     0.88100
C398        C  0.17336347  0.96996555  0.67394108    -0.52200
C399        C  0.12778410  0.97117698  0.66499777     0.11000
C400        C  0.10296813  0.01115481  0.68743307     0.22000
C401        C  0.17508994  0.05272247  0.67910692    -0.52900
C402        C  0.12949851  0.05316108  0.67007696     0.11100
C403        C  0.16074614  0.00671532  0.74716373    -0.52400
C404        C  0.11525064  0.00792687  0.73858229     0.11700
H405        H  0.19566087  0.94427600  0.65989399     0.16200
H406        H  0.06578508  0.01175255  0.68018797     0.01900
H407        H  0.19856456  0.07939557  0.66776229     0.16500
H408        H  0.17473504  0.00346986  0.78149506     0.16300
O409        O  0.73131332  0.65776304  0.95631798    -0.84900
O410        O  0.75273531  0.47227704  0.13639710    -0.85100
O411        O  0.66991845  0.60076896  0.09053642    -0.86700
O412        O  0.81637253  0.60944996  0.08160518    -0.85500
O413        O  0.87191074  0.56856772  0.04515935    -0.85100
O414        O  0.61386850  0.56592069  0.04727653    -0.86500
O415        O  0.75398063  0.55063828  0.13751642    -0.84900
O416        O  0.73268309  0.65666306  0.03497615    -0.84500
Zr417      Zr  0.74270432  0.57797135  0.05942887     2.84300
O418        O  0.78824993  0.51327085  0.05866178    -1.06500
O419        O  0.69676276  0.57878233  0.99389595    -1.07200
C420        C  0.72799860  0.67675860  0.99596408     1.08200
C421        C  0.75751123  0.51109222  0.15656045     1.08200
C422        C  0.62798945  0.59258015  0.07980341     1.11100
C423        C  0.85809145  0.60025627  0.07210611     1.08900
H424        H  0.67766937  0.51278378  0.08610995     0.34500
O425        O  0.69586192  0.51298135  0.05864720    -1.27400
H426        H  0.80723151  0.60746483  0.99509836     0.34100
O427        O  0.78904832  0.57980265  0.99460477    -1.29100
O428        O  0.73192528  0.36988168  0.03102007    -0.84900
O429        O  0.75344925  0.55527193  0.85050285    -0.86400
O430        O  0.61189293  0.46220790  0.04672331    -0.85000
O431        O  0.87076737  0.46096095  0.04687550    -0.85000
O432        O  0.87298899  0.57097499  0.94424448    -0.84700
O433        O  0.61406816  0.56504595  0.93757127    -0.84500
O434        O  0.66799387  0.42759249  0.89507421    -0.84900
O435        O  0.81574959  0.41945420  0.90585500    -0.84400
O436        O  0.61212023  0.46293908  0.93653792    -0.85400
O437        O  0.87196232  0.46093817  0.94258112    -0.84600
O438        O  0.66730211  0.42615665  0.08866899    -0.85000
O439        O  0.67069831  0.60190178  0.89680714    -0.84700
O440        O  0.81776720  0.61356408  0.90898907    -0.84400
O441        O  0.81433002  0.41803484  0.08150917    -0.84800
O442        O  0.73166609  0.37090283  0.95235521    -0.85100
O443        O  0.75178022  0.47683930  0.84962445    -0.86400
Zr444      Zr  0.74128709  0.44817389  0.05762528     2.83100
Zr445      Zr  0.74357156  0.58025567  0.92915500     2.83500
Zr446      Zr  0.64973462  0.51373695  0.99261591     2.84100
Zr447      Zr  0.83470170  0.51452985  0.99374957     2.83400
Zr448      Zr  0.74185778  0.44979444  0.92758743     2.84200
O449        O  0.78886704  0.51513864  0.92821000    -1.07000
O450        O  0.69501010  0.44862694  0.99230484    -1.06500
C451        C  0.72833365  0.35063981  0.99148092     1.08200
C452        C  0.75600805  0.51627557  0.83044124     1.10800
C453        C  0.62553649  0.43542746  0.07897959     1.08400
C454        C  0.85636837  0.42865964  0.07366280     1.08700
C455        C  0.85964250  0.60409488  0.91832867     1.08300
C456        C  0.62868418  0.59217373  0.90574167     1.07900
C457        C  0.62596623  0.43637915  0.90415400     1.08300
C458        C  0.85777181  0.42902144  0.91543675     1.07800
H459        H  0.67904360  0.51503886  0.90003574     0.34500
O460        O  0.69695346  0.51488204  0.92776173    -1.28100
H461        H  0.80577834  0.42152887  0.99301567     0.34500
O462        O  0.78780640  0.44882459  0.99292367    -1.29500
O463        O  0.25370940  0.65358265  0.96264723    -0.84900
O464        O  0.23421642  0.46956046  0.14448706    -0.85100
O465        O  0.17078997  0.60684194  0.08723934    -0.86700
O466        O  0.31766292  0.59435956  0.10009554    -0.85500
O467        O  0.37332824  0.55817649  0.05913670    -0.85100
O468        O  0.11391080  0.56552617  0.05141916    -0.86500
O469        O  0.23563279  0.54803802  0.14513105    -0.84900
O470        O  0.25424215  0.65280781  0.04134647    -0.84500
Zr471      Zr  0.24381141  0.57405994  0.06679531     2.84300
O472        O  0.28832486  0.50860862  0.06647178    -1.06500
O473        O  0.19754355  0.57523002  0.00179910    -1.07200
C474        C  0.25759059  0.67284072  0.00208222     1.08200
C475        C  0.23240174  0.50866515  0.16455797     1.08200
C476        C  0.12864765  0.59783880  0.07781966     1.11100
C477        C  0.35955359  0.58464678  0.09154329     1.08900
H478        H  0.17559208  0.50897206  0.09276712     0.34500
O479        O  0.19562650  0.50922260  0.06660387    -1.27400
H480        H  0.31136524  0.60049015  0.00256129     0.34100
O481        O  0.29089669  0.57446335  0.00221018    -1.29100
O482        O  0.25003753  0.36558790  0.03838385    -0.84900
O483        O  0.23290185  0.55186744  0.85810094    -0.86400
O484        O  0.11165926  0.45317276  0.04956808    -0.85000
O485        O  0.37033683  0.45726635  0.05700617    -0.85000
O486        O  0.37367008  0.56054244  0.94772399    -0.84700
O487        O  0.11431440  0.56537872  0.94924686    -0.84500
O488        O  0.16897283  0.41323031  0.91510245    -0.84900
O489        O  0.31550690  0.42414072  0.90341622    -0.84400
O490        O  0.11328675  0.45482187  0.95052735    -0.85400
O491        O  0.37191843  0.45805819  0.94684570    -0.84600
O492        O  0.16681707  0.41025796  0.08444565    -0.85000
O493        O  0.17141403  0.60771800  0.91504950    -0.84700
O494        O  0.31811129  0.59638920  0.90584950    -0.84400
O495        O  0.31330254  0.42108898  0.09774049    -0.84800
O496        O  0.25061232  0.36699745  0.95964906    -0.85100
O497        O  0.23136061  0.47347560  0.85660949    -0.86400
Zr498      Zr  0.24093808  0.44382122  0.06543185     2.83100
Zr499      Zr  0.24407271  0.57533680  0.93709534     2.83500
Zr500      Zr  0.15006015  0.51026467  0.00108213     2.84100
Zr501      Zr  0.33561254  0.50925990  0.00190807     2.83400
Zr502      Zr  0.24241254  0.44607006  0.93506456     2.84200
O503        O  0.28979592  0.51068461  0.93583607    -1.07000
O504        O  0.19570595  0.44528783  0.99985228    -1.06500
C505        C  0.25365861  0.34658514  0.99871667     1.08200
C506        C  0.22784935  0.51318940  0.83772957     1.10800
C507        C  0.12502335  0.41962300  0.07485880     1.08400
C508        C  0.35539766  0.43024939  0.08878305     1.08700
C509        C  0.35989146  0.58719529  0.91541880     1.08300
C510        C  0.12920483  0.59784188  0.92289912     1.07900
C511        C  0.12726478  0.42241068  0.92447549     1.08300
C512        C  0.35756617  0.43187573  0.91407774     1.07800
H513        H  0.17605339  0.51106216  0.91033701     0.34500
O514        O  0.19633388  0.51071216  0.93633796    -1.28100
H515        H  0.30791977  0.41881802  0.00064006     0.34500
O516        O  0.28826643  0.44488936  0.00078703    -1.29500
C517        C  0.99936828  0.71606090  0.79337127     0.88100
C518        C  0.03851754  0.68596795  0.81024183    -0.52200
C519        C  0.03868864  0.68002029  0.85674847     0.11000
C520        C  0.00032991  0.70495507  0.88178151     0.22000
C521        C  0.95593720  0.69304624  0.81211171    -0.52900
C522        C  0.95664363  0.68668276  0.85840222     0.11100
C523        C  0.00473569  0.76055503  0.81977982    -0.52400
C524        C  0.00565593  0.75519443  0.86608525     0.11700
H525        H  0.06300697  0.67016590  0.78764517     0.16200
H526        H  0.00070146  0.70014020  0.91953310     0.01900
H527        H  0.92822979  0.68078592  0.79047412     0.16500
H528        H  0.00662270  0.79371170  0.80313196     0.16300
C529        C  0.99354961  0.30538164  0.80026789     0.88100
C530        C  0.95328950  0.33533528  0.81368753    -0.52200
C531        C  0.95155585  0.34416626  0.85951346     0.11000
C532        C  0.98975810  0.32193146  0.88761841     0.22000
C533        C  0.03581694  0.33051729  0.81859375    -0.52900
C534        C  0.03340247  0.33942127  0.86428233     0.11100
C535        C  0.98869359  0.26250063  0.82951404    -0.52400
C536        C  0.98710754  0.27094407  0.87524238     0.11700
H537        H  0.92923744  0.34923347  0.78920622     0.16200
H538        H  0.98815188  0.32908370  0.92492923     0.01900
H539        H  0.06406514  0.34184520  0.79721577     0.16500
H540        H  0.98658450  0.22828071  0.81536105     0.16300
C541        C  0.48926300  0.71000938  0.79001918     0.88100
C542        C  0.45032080  0.69310085  0.82077672    -0.52200
C543        C  0.45174857  0.64741541  0.82936951     0.11000
C544        C  0.49149215  0.62285265  0.80615755     0.22000
C545        C  0.53294519  0.69509542  0.81429233    -0.52900
C546        C  0.53368515  0.64940475  0.82303158     0.11100
C547        C  0.48589913  0.68108542  0.74691708    -0.52400
C548        C  0.48742726  0.63547212  0.75513696     0.11700
H549        H  0.42475782  0.71524891  0.83528733     0.16200
H550        H  0.49228660  0.58559665  0.81312426     0.01900
H551        H  0.55969288  0.71860494  0.82535945     0.16500
H552        H  0.48213398  0.69535060  0.71274131     0.16300
C553        C  0.49599494  0.71455769  0.20221038     0.88100
C554        C  0.53474873  0.70019685  0.17025708    -0.52200
C555        C  0.53631771  0.65408599  0.16369645     0.11000
C556        C  0.49960160  0.62678232  0.18991787     0.22000
C557        C  0.45255870  0.69402321  0.18059093    -0.52900
C558        C  0.45471145  0.64805551  0.17355985     0.11100
C559        C  0.50347002  0.68779013  0.24632891    -0.52400
C560        C  0.50567663  0.64181653  0.24034002     0.11700
H561        H  0.55804261  0.72415298  0.15373423     0.16200
H562        H  0.50114310  0.58932004  0.18457161     0.01900
H563        H  0.42388159  0.71434071  0.16951081     0.16500
H564        H  0.50554596  0.70389887  0.27974667     0.16300
C565        C  0.98642001  0.30896565  0.20046176     0.88100
C566        C  0.02984470  0.33097980  0.18072035    -0.52200
C567        C  0.02839519  0.33676659  0.13439830     0.11000
C568        C  0.98400506  0.31894900  0.11201671     0.22000
C569        C  0.94754153  0.33946945  0.18405377    -0.52900
C570        C  0.94663266  0.34495004  0.13756984     0.11100
C571        C  0.97990036  0.26423472  0.17483431    -0.52400
C572        C  0.97829532  0.26890683  0.12848768     0.11700
H573        H  0.05805618  0.34317467  0.20173233     0.16200
H574        H  0.98302388  0.32336288  0.07422678     0.01900
H575        H  0.92393862  0.35615594  0.20696175     0.16500
H576        H  0.97818281  0.23137524  0.19206990     0.16300
C577        C  0.99174927  0.72066771  0.19303028     0.88100
C578        C  0.95001524  0.69406430  0.17574966    -0.52200
C579        C  0.95220542  0.68421022  0.13030601     0.11000
C580        C  0.99513392  0.70235028  0.10607628     0.22000
C581        C  0.03275536  0.69155010  0.17981108    -0.52900
C582        C  0.03427654  0.68188853  0.13411914     0.11100
C583        C  0.99515572  0.76301215  0.16289965    -0.52400
C584        C  0.99668225  0.75354976  0.11739504     0.11700
H585        H  0.92223435  0.68256123  0.19765351     0.16200
H586        H  0.99653084  0.69450463  0.06889708     0.01900
H587        H  0.05753116  0.67895867  0.20427841     0.16500
H588        H  0.99682388  0.79755737  0.17629264     0.16300
C589        C  0.48867563  0.30625455  0.79384147     0.88100
C590        C  0.53254968  0.32631138  0.81497458    -0.52200
C591        C  0.53101379  0.37236023  0.82177875     0.11000
C592        C  0.48622978  0.39407249  0.80542519     0.22000
C593        C  0.45028121  0.32131908  0.82597440    -0.52900
C594        C  0.44933740  0.36755703  0.83212790     0.11100
C595        C  0.48119228  0.33259768  0.74965594    -0.52400
C596        C  0.47929610  0.37853528  0.75523329     0.11700
H597        H  0.56092733  0.30562165  0.82614933     0.16200
H598        H  0.48516666  0.43160696  0.81035769     0.01900
H599        H  0.42660896  0.29780432  0.84258206     0.16500
H600        H  0.47843437  0.31611485  0.71645300     0.16300
C601        C  0.49619062  0.31412220  0.20555123     0.88100
C602        C  0.45222939  0.32796730  0.18112992    -0.52200
C603        C  0.45083073  0.37342982  0.17139439     0.11000
C604        C  0.49275199  0.40092177  0.18758137     0.22000
C605        C  0.53477714  0.33089229  0.17428121    -0.52900
C606        C  0.53277887  0.37636890  0.16479003     0.11100
C607        C  0.49937915  0.34405923  0.24802422    -0.52400
C608        C  0.49716259  0.38950438  0.23890699     0.11700
H609        H  0.42573911  0.30387511  0.17070762     0.16200
H610        H  0.49144695  0.43799599  0.17978492     0.01900
H611        H  0.56067376  0.30881872  0.16025855     0.16500
H612        H  0.50367859  0.33057300  0.28244238     0.16300
O613        O  0.57588554  0.40505252  0.56128319    -0.84900
O614        O  0.44619264  0.49585666  0.35444124    -0.85100
O615        O  0.47427500  0.36843697  0.45070244    -0.86700
O616        O  0.59587768  0.44771223  0.41089082    -0.85500
O617        O  0.62239266  0.52036100  0.42530867    -0.85100
O618        O  0.41816155  0.38144284  0.50344872    -0.86500
O619        O  0.49802726  0.43966431  0.36832288    -0.84900
O620        O  0.56281623  0.38120691  0.48746316    -0.84500
Zr621      Zr  0.52048650  0.43878045  0.44820455     2.84300
O622        O  0.51810518  0.51386007  0.42258922    -1.06500
O623        O  0.49489123  0.43495651  0.52414012    -1.07200
C624        C  0.57856505  0.37571603  0.52818562     1.08200
C625        C  0.47119714  0.46219980  0.34180494     1.08200
C626        C  0.43997603  0.35564514  0.47556839     1.11100
C627        C  0.62653292  0.48002871  0.40868229     1.08900
H628        H  0.42569625  0.44449792  0.43178276     0.34500
O629        O  0.44485879  0.46346135  0.45098903    -1.27400
H630        H  0.59718512  0.47220625  0.49510977     0.34100
O631        O  0.56664989  0.48395973  0.49551812    -1.29100
O632        O  0.40686768  0.61463302  0.43534285    -0.84900
O633        O  0.53716416  0.52628155  0.64170438    -0.86400
O634        O  0.35023014  0.46302064  0.48140004    -0.85000
O635        O  0.55637583  0.59428571  0.39193614    -0.85000
O636        O  0.63479472  0.55555901  0.51490829    -0.84700
O637        O  0.42789879  0.42295635  0.60306503    -0.84500
O638        O  0.38868014  0.57245657  0.58333971    -0.84900
O639        O  0.51070786  0.65232256  0.54279458    -0.84400
O640        O  0.36251047  0.49952886  0.56974237    -0.85400
O641        O  0.56824583  0.63881441  0.49164377    -0.84600
O642        O  0.36362761  0.51600471  0.42480449    -0.85000
O643        O  0.50089261  0.43705834  0.62845543    -0.84700
O644        O  0.62059583  0.50467179  0.57331927    -0.84400
O645        O  0.48296007  0.58143232  0.36720526    -0.84800
O646        O  0.42018593  0.63879897  0.50897741    -0.85100
O647        O  0.48810149  0.58456711  0.62610086    -0.86400
Zr648      Zr  0.44301041  0.53952087  0.42583302     2.83100
Zr649      Zr  0.54102382  0.48085069  0.57103885     2.83500
Zr650      Zr  0.42008099  0.46028748  0.52736737     2.84100
Zr651      Zr  0.56513117  0.55931395  0.46870806     2.83400
Zr652      Zr  0.46441667  0.58194446  0.54699272     2.84200
O653        O  0.53990232  0.55671702  0.54500067    -1.07000
O654        O  0.41770736  0.53574640  0.50130410    -1.06500
C655        C  0.40414929  0.64402436  0.46834929     1.08200
C656        C  0.51366280  0.56144820  0.65330077     1.10800
C657        C  0.33770246  0.48791956  0.44715844     1.08400
C658        C  0.52383243  0.59691007  0.36188019     1.08700
C659        C  0.64698656  0.53156707  0.54993487     1.08300
C660        C  0.46025102  0.42072851  0.63334092     1.07900
C661        C  0.35816500  0.54003975  0.58579169     1.08300
C662        C  0.54550692  0.66497418  0.51851335     1.07800
H663        H  0.45411952  0.50667650  0.60424868     0.34500
O664        O  0.46598632  0.50700585  0.57347623    -1.28100
H665        H  0.49034759  0.61602666  0.45955505     0.34500
O666        O  0.49048799  0.58526731  0.47131587    -1.29500
O667        O  0.09697934  0.92617969  0.06174415    -0.84900
O668        O  0.01140854  0.05866843  0.85522774    -0.85100
O669        O  0.05620755  0.90677794  0.91382499    -0.86700
O670        O  0.13499206  0.03029583  0.95049711    -0.85500
O671        O  0.12185926  0.08788457  0.00183878    -0.85100
O672        O  0.98261821  0.88184634  0.92581345    -0.86500
O673        O  0.06799150  0.00717422  0.86934910    -0.84900
O674        O  0.12243096  0.94002518  0.98860825    -0.84500
Zr675      Zr  0.06549658  0.98322596  0.94880296     2.84300
O676        O  0.04073128  0.05900524  0.95075644    -1.06500
O677        O  0.01860596  0.93736591  0.99458415    -1.07200
C678        C  0.12700476  0.92373667  0.02928647     1.08200
C679        C  0.04576435  0.03446976  0.84300715     1.08200
C680        C  0.02340508  0.87673733  0.91079236     1.11100
C681        C  0.14756808  0.06541313  0.97424939     1.08900
H682        H  0.99036764  0.97370381  0.89109201     0.34500
O683        O  0.99076326  0.98539435  0.92190534    -1.27400
H684        H  0.09907819  0.00989803  0.03624787     0.34100
O685        O  0.06838057  0.00993753  0.02442184    -1.29100
O686        O  0.88897468  0.09472438  0.93356181    -0.84900
O687        O  0.97655976  0.96617501  0.14037211    -0.86400
O688        O  0.90602282  0.94961988  0.89217571    -0.85000
O689        O  0.03803052  0.15523506  0.98119708    -0.85000
O690        O  0.07846255  0.07631078  0.10291521    -0.84700
O691        O  0.94622548  0.86981029  0.01315748    -0.84500
O692        O  0.85084827  0.99455132  0.04275025    -0.84900
O693        O  0.93068428  0.11576822  0.08369767    -0.84400
O694        O  0.86411157  0.93801668  0.99049629    -0.85400
O695        O  0.00386265  0.14164585  0.07084733    -0.84600
O696        O  0.92138510  0.02234727  0.86660306    -0.85000
O697        O  0.99854771  0.88345952  0.07026187    -0.84700
O698        O  0.06426356  0.00324120  0.12820507    -0.84400
O699        O  0.98724276  0.14049568  0.92301471    -0.84800
O700        O  0.86372935  0.08172004  0.00689653    -0.85100
O701        O  0.91979967  0.01743393  0.12636149    -0.86400
Zr702      Zr  0.96505827  0.06069024  0.92486042     2.83100
Zr703      Zr  0.02201145  0.96294822  0.06998065     2.83500
Zr704      Zr  0.94343615  0.93987863  0.96775998     2.84100
Zr705      Zr  0.04277230  0.08484490  0.02671900     2.83400
Zr706      Zr  0.92153573  0.04027671  0.04681045     2.84200
O707        O  0.99660020  0.03814019  0.07280381    -1.07000
O708        O  0.91855980  0.01470897  0.97102691    -1.06500
C709        C  0.85887258  0.09705803  0.96592524     1.08200
C710        C  0.94228348  0.99047080  0.15274152     1.10800
C711        C  0.90398814  0.98213258  0.86196273     1.08400
C712        C  0.01363761  0.16729256  0.94636717     1.08700
C713        C  0.08051410  0.04391381  0.13315792     1.08300
C714        C  0.97104721  0.85732566  0.04741198     1.07900
C715        C  0.83803039  0.96033197  0.01773357     1.08300
C716        C  0.96323922  0.14607664  0.08663485     1.07800
H717        H  0.92712239  0.94548470  0.06315324     0.34500
O718        O  0.94614780  0.96457848  0.04426427    -1.28100
H719        H  0.95562495  0.11700642  0.00044222     0.34500
O720        O  0.96741280  0.08650824  0.00013769    -1.29500
C721        C  0.50340821  0.42246597  0.27632285    -0.14800
C722        C  0.46884125  0.44663320  0.29363335    -0.30000
H723        H  0.53425272  0.41838734  0.29650063     0.14200
H724        H  0.43742341  0.45055662  0.27438363     0.14800
C725        C  0.47430226  0.40960750  0.71556801    -0.14800
C726        C  0.45139715  0.39722043  0.67715514    -0.30000
H727        H  0.49342076  0.44158974  0.71645973     0.14200
H728        H  0.42913170  0.36731498  0.67705793     0.14800
C729        C  0.96759365  0.80960460  0.06298323    -0.14800
C730        C  0.00316806  0.79060057  0.08428162    -0.30000
H731        H  0.93490050  0.79183067  0.06127088     0.14200
H732        H  0.03548134  0.80907892  0.08623162     0.14800
C733        C  0.95425246  0.18938194  0.11030731    -0.14800
C734        C  0.97595425  0.22856383  0.09799445    -0.30000
H735        H  0.93169786  0.18860745  0.13973342     0.14200
H736        H  0.99535393  0.23008596  0.06637411     0.14800
C737        C  0.53267174  0.62090521  0.31821755    -0.14800
C738        C  0.50908893  0.61009121  0.27977976    -0.30000
H739        H  0.55589572  0.65006493  0.31848816     0.14200
H740        H  0.48869907  0.57889908  0.27849817     0.14800
C741        C  0.48143904  0.60340514  0.71708642    -0.14800
C742        C  0.51550320  0.57763520  0.70120897    -0.30000
H743        H  0.45153065  0.60890084  0.69585423     0.14200
H744        H  0.54594108  0.57228296  0.72162885     0.14800
C745        C  0.98078692  0.23296830  0.90755731    -0.14800
C746        C  0.01590826  0.21531744  0.93096578    -0.30000
H747        H  0.94959371  0.21296170  0.90343968     0.14200
H748        H  0.04757705  0.23456540  0.93482186     0.14800
C749        C  0.00800338  0.79491045  0.89735180    -0.14800
C750        C  0.03193247  0.83333977  0.88694857    -0.30000
H751        H  0.98707563  0.79356279  0.92797399     0.14200
H752        H  0.05571655  0.83363896  0.85850699     0.14800
C753        C  0.06630901  0.36787453  0.88698220    -0.11700
C754        C  0.09355758  0.39327848  0.90444598    -0.13200
C755        C  0.09049649  0.38959059  0.09372357    -0.11700
C756        C  0.06227217  0.36426476  0.11063932    -0.13200
C757        C  0.09533435  0.62695403  0.09805999    -0.11700
C758        C  0.06782866  0.65228167  0.11453701    -0.13200
C759        C  0.09623463  0.62579965  0.90006667    -0.11700
C760        C  0.07022297  0.65054414  0.88015446    -0.13200
C761        C  0.39105559  0.40917263  0.88671728    -0.11700
C762        C  0.41754885  0.38971223  0.86220585    -0.13200
C763        C  0.39379870  0.60783935  0.88659151    -0.11700
C764        C  0.42053187  0.62524011  0.86042282    -0.13200
C765        C  0.39362835  0.60515273  0.12106235    -0.11700
C766        C  0.42117874  0.62360636  0.14608577    -0.13200
C767        C  0.41611027  0.39266821  0.14289423    -0.11700
C768        C  0.38845927  0.40920454  0.11762094    -0.13200
C769        C  0.59142016  0.41517521  0.10779723    -0.11700
C770        C  0.56420411  0.39831895  0.13380213    -0.13200
C771        C  0.59437528  0.61461791  0.10740750    -0.11700
C772        C  0.56795811  0.63299448  0.13277513    -0.13200
C773        C  0.56791850  0.62914488  0.85133769    -0.11700
C774        C  0.59541254  0.61249902  0.87667818    -0.13200
C775        C  0.59193848  0.41507173  0.87493738    -0.11700
C776        C  0.56459796  0.39644099  0.84969984    -0.13200
C777        C  0.91573525  0.37555643  0.11495536    -0.11700
C778        C  0.88974826  0.40104436  0.09610618    -0.13200
C779        C  0.89152806  0.40049661  0.89514206    -0.11700
C780        C  0.91886611  0.37478458  0.87900263    -0.13200
C781        C  0.92252819  0.65882675  0.88155723    -0.11700
C782        C  0.89424968  0.63365961  0.89871844    -0.13200
C783        C  0.91952649  0.65470864  0.10873124    -0.11700
C784        C  0.89201595  0.62901105  0.09219087    -0.13200
C785        C  0.08287677  0.00218920  0.77635101    -0.14800
C786        C  0.06176305  0.03781606  0.79525239    -0.30000
H787        H  0.08483580  0.97023354  0.79514561     0.14200
H788        H  0.05996825  0.07021755  0.77726395     0.14800
C789        C  0.09353748  0.02930391  0.21511863    -0.14800
C790        C  0.10460628  0.05271189  0.17666252    -0.30000
H791        H  0.06221162  0.00916115  0.21644787     0.14200
H792        H  0.13389278  0.07577356  0.17629190     0.14800
C793        C  0.21456423  0.50991972  0.25241924    -0.11700
C794        C  0.22406860  0.50862605  0.21253574    -0.13200
C795        C  0.27024915  0.51995626  0.41147447    -0.14800
C796        C  0.29030433  0.48376004  0.43074841    -0.30000
H797        H  0.28734911  0.55306079  0.41235090     0.14200
H798        H  0.27391141  0.45031907  0.42980050     0.14800
C799        C  0.77977781  0.50844742  0.24396529    -0.11700
C800        C  0.76925934  0.51004365  0.20413272    -0.13200
C801        C  0.66977758  0.47138244  0.38465711    -0.14800
C802        C  0.70880494  0.49355131  0.39670813    -0.30000
H803        H  0.66891934  0.44921185  0.35492963     0.14200
H804        H  0.71039741  0.51257460  0.42855201     0.14800
C805        C  0.89032898  0.99720699  0.78011487    -0.14800
C806        C  0.87920058  0.97392208  0.81867741    -0.30000
H807        H  0.92166828  0.01733131  0.77879120     0.14200
H808        H  0.84997514  0.95079695  0.81907606     0.14800
C809        C  0.92604533  0.98705135  0.20047591    -0.14800
C810        C  0.90403988  0.02233185  0.21908094    -0.30000
H811        H  0.92763937  0.95453876  0.21827686     0.14200
H812        H  0.90225682  0.05436700  0.20040446     0.14800
C813        C  0.20351458  0.51702005  0.75088439    -0.11700
C814        C  0.21489951  0.51480355  0.79046563    -0.13200
C815        C  0.27610397  0.52588138  0.59863484    -0.14800
C816        C  0.31494244  0.54877542  0.60982134    -0.30000
H817        H  0.27464293  0.50553006  0.56762711     0.14200
H818        H  0.31555605  0.57211501  0.63863891     0.14800
C819        C  0.77586068  0.51536094  0.74286046    -0.11700
C820        C  0.76592072  0.51657569  0.78268563    -0.13200
C821        C  0.71417114  0.49988745  0.58690665    -0.14800
C822        C  0.69481560  0.53515393  0.56531984    -0.30000
H823        H  0.69562999  0.46765870  0.58974824     0.14200
H824        H  0.71269786  0.56774491  0.56265949     0.14800
C825        C  0.99016369  0.29048111  0.28969929    -0.11700
C826        C  0.98833137  0.30130087  0.24995537    -0.13200
C827        C  0.99583653  0.29501675  0.75145127    -0.11700
C828        C  0.99700304  0.28495089  0.71160815    -0.13200
C829        C  0.85532670  0.43544684  0.37840886    -0.11700
C830        C  0.88019334  0.40905669  0.39771115    -0.13200
C831        C  0.85421629  0.43667596  0.61578860    -0.11700
C832        C  0.87972586  0.40922367  0.59960800    -0.13200
C833        C  0.11381611  0.41270493  0.59598750    -0.11700
C834        C  0.13930071  0.44067810  0.61324097    -0.13200
C835        C  0.13416317  0.43867851  0.38302705    -0.11700
C836        C  0.10841566  0.41131907  0.39997368    -0.13200
C837        C  0.09268301  0.11416234  0.61567545    -0.11700
C838        C  0.10932266  0.08691391  0.64122776    -0.13200
C839        C  0.87746932  0.08256175  0.64394355    -0.11700
C840        C  0.89589497  0.11031371  0.61900955    -0.13200
C841        C  0.89274325  0.11096500  0.38663028    -0.11700
C842        C  0.87533837  0.08437269  0.36028449    -0.13200
C843        C  0.09564036  0.11338977  0.38735206    -0.11700
C844        C  0.11483210  0.08734402  0.36222239    -0.13200
C845        C  0.98759424  0.74224558  0.28122107    -0.11700
C846        C  0.98937226  0.73195462  0.24152768    -0.13200
C847        C  0.99638065  0.73545843  0.70400022    -0.11700
C848        C  0.99810946  0.72442711  0.74378966    -0.13200
C849        C  0.10813338  0.61533500  0.39414532    -0.11700
C850        C  0.13370978  0.58764967  0.37837333    -0.13200
C851        C  0.10625512  0.61413693  0.59342545    -0.11700
C852        C  0.13094277  0.58804115  0.61331709    -0.13200
C853        C  0.87564730  0.61202731  0.58977297    -0.11700
C854        C  0.85019474  0.58478735  0.60737604    -0.13200
C855        C  0.87031455  0.61004389  0.39962985    -0.11700
C856        C  0.84430152  0.58228872  0.38275791    -0.13200
C857        C  0.10737545  0.94056786  0.34813730    -0.11700
C858        C  0.08827025  0.91305448  0.37276685    -0.13200
C859        C  0.89125534  0.90900972  0.37709591    -0.11700
C860        C  0.87397397  0.93647406  0.35215436    -0.13200
C861        C  0.89341212  0.90941681  0.60924356    -0.11700
C862        C  0.87391764  0.93537129  0.63423347    -0.13200
C863        C  0.08892860  0.91271257  0.60795804    -0.11700
C864        C  0.10599358  0.93968834  0.63404265    -0.13200
C865        C  0.24158339  0.79821410  0.48876646    -0.11700
C866        C  0.20174729  0.78804858  0.48907336    -0.13200
C867        C  0.39195521  0.72517996  0.48401364    -0.14800
C868        C  0.38058630  0.68723656  0.46007921    -0.30000
H869        H  0.42257398  0.72597917  0.50499103     0.14200
H870        H  0.35225488  0.68740139  0.43610613     0.14800
C871        C  0.24271430  0.22409637  0.49616520    -0.11700
C872        C  0.20326082  0.23481891  0.49680098    -0.13200
C873        C  0.42296994  0.30809348  0.47181755    -0.14800
C874        C  0.39719205  0.29031648  0.50559680    -0.30000
H875        H  0.42804341  0.28932935  0.44025130     0.14200
H876        H  0.39178009  0.30981867  0.53665991     0.14800
C877        C  0.71835953  0.30262180  0.99100576    -0.11700
C878        C  0.70890830  0.26247749  0.99071246    -0.13200
C879        C  0.81566961  0.12040313  0.95661386    -0.14800
C880        C  0.77722600  0.10928144  0.97982969    -0.30000
H881        H  0.81627037  0.14928299  0.93326803     0.14200
H882        H  0.77568273  0.07823985  0.00018729     0.14800
C883        C  0.26436774  0.29902738  0.99789317    -0.11700
C884        C  0.27541028  0.25959995  0.99691218    -0.13200
C885        C  0.21602262  0.10198727  0.00528119    -0.14800
C886        C  0.19497876  0.08211751  0.96953754    -0.30000
H887        H  0.19923352  0.10231121  0.03840883     0.14200
H888        H  0.21100593  0.08189152  0.93603953     0.14800
C889        C  0.78052066  0.78369377  0.49780814    -0.11700
C890        C  0.74109837  0.79491119  0.49856087    -0.13200
C891        C  0.58538194  0.73183413  0.48709366    -0.14800
C892        C  0.56152575  0.71296362  0.52170450    -0.30000
H893        H  0.58982476  0.71267862  0.45564373     0.14200
H894        H  0.55732004  0.73132757  0.55363832     0.14800
C895        C  0.70605926  0.76372242  0.99753331    -0.11700
C896        C  0.71663503  0.72415435  0.99682263    -0.13200
C897        C  0.77224229  0.91835519  0.98684013    -0.14800
C898        C  0.79003739  0.94418166  0.02062283    -0.30000
H899        H  0.79226311  0.91224677  0.95625790     0.14200
H900        H  0.77081806  0.94995736  0.05176939     0.14800
C901        C  0.26861583  0.72039105  0.00213916    -0.11700
C902        C  0.27874399  0.76023502  0.00187310    -0.13200
C903        C  0.20848239  0.91177561  0.01516014    -0.14800
C904        C  0.17008287  0.89996306  0.03814105    -0.30000
H905        H  0.20980902  0.94322727  0.99544057     0.14200
H906        H  0.16953758  0.87065627  0.06094894     0.14800
C907        C  0.28602725  0.01501717  0.27211992    -0.11700
C908        C  0.24666824  0.01558101  0.28370131    -0.13200
C909        C  0.74617465  0.01403917  0.27494825    -0.11700
C910        C  0.70660853  0.01421320  0.26456197    -0.13200
C911        C  0.38058725  0.87235537  0.42326939    -0.11700
C912        C  0.39929025  0.89873175  0.39750564    -0.13200
C913        C  0.59352730  0.90111055  0.39873934    -0.11700
C914        C  0.61088323  0.87523947  0.42566407    -0.13200
C915        C  0.39603706  0.13028527  0.39375134    -0.11700
C916        C  0.37678048  0.15471605  0.42031100    -0.13200
C917        C  0.49878890  0.22586181  0.22651780    -0.11700
C918        C  0.49807959  0.26562333  0.21661375    -0.13200
C919        C  0.49307947  0.80362713  0.22175177    -0.11700
C920        C  0.49389902  0.76387492  0.21101522    -0.13200
C921        C  0.61675469  0.10876984  0.09521766    -0.11700
C922        C  0.64295686  0.12557419  0.06771861    -0.13200
C923        C  0.61142480  0.91618416  0.09942292    -0.11700
C924        C  0.63656865  0.89777690  0.07298523    -0.13200
C925        C  0.38139312  0.91401174  0.09766156    -0.11700
C926        C  0.35603884  0.89507710  0.07121300    -0.13200
C927        C  0.35695496  0.12991054  0.06826433    -0.11700
C928        C  0.38236999  0.11252869  0.09544797    -0.13200
C929        C  0.74475525  0.22430055  0.50325594    -0.11700
C930        C  0.78465477  0.23382590  0.50314211    -0.13200
C931        C  0.59293161  0.13615695  0.39460359    -0.11700
C932        C  0.60979730  0.16196296  0.42222480    -0.13200
C933        C  0.59287793  0.29519348  0.51072614    -0.14800
C934        C  0.60272246  0.33261744  0.53607867    -0.30000
H935        H  0.56264188  0.29429545  0.48920329     0.14200
H936        H  0.63075482  0.33242289  0.56040710     0.14800
C937        C  0.27802883  0.00781138  0.72505727    -0.11700
C938        C  0.23844036  0.00840762  0.71477731    -0.13200
C939        C  0.69875094  0.00730641  0.71843970    -0.11700
C940        C  0.73831567  0.00641283  0.70730811    -0.13200
C941        C  0.39297962  0.12188061  0.59401119    -0.11700
C942        C  0.37527953  0.14775298  0.56755250    -0.13200
C943        C  0.60693523  0.14866928  0.56891353    -0.11700
C944        C  0.58748050  0.12328031  0.59509107    -0.13200
C945        C  0.60738889  0.86660634  0.57361994    -0.11700
C946        C  0.58848401  0.89119404  0.60035887    -0.13200
C947        C  0.37699653  0.86058188  0.56978645    -0.11700
C948        C  0.39345103  0.88637762  0.59772333    -0.13200
C949        C  0.49002228  0.25718415  0.78463270    -0.11700
C950        C  0.49043799  0.21807277  0.77210373    -0.13200
C951        C  0.48788203  0.75861877  0.77982627    -0.11700
C952        C  0.48694591  0.79828730  0.76982110    -0.13200
C953        C  0.37466483  0.11137678  0.89234855    -0.11700
C954        C  0.34993337  0.12933433  0.91953590    -0.13200
C955        C  0.36675805  0.91586759  0.89737648    -0.11700
C956        C  0.34093537  0.89857580  0.92486656    -0.13200
C957        C  0.60269359  0.91329427  0.89897683    -0.11700
C958        C  0.62843520  0.89581023  0.92584692    -0.13200
C959        C  0.63092185  0.12768299  0.92078907    -0.11700
C960        C  0.60521651  0.10907529  0.89432433    -0.13200
loop_ 
_geom_bond_atom_site_label_1 
_geom_bond_atom_site_label_2 
_geom_bond_distance 
_geom_bond_site_symmetry_2 
_ccdc_geom_bond_type 
O1          Zr37   2.449       .  S
O1           C12   1.293       .  A
O2          Zr36   2.452       .  S
O2           C13   1.293       .  A
O3           Zr9   2.451       .  S
O3           C14   1.293       .  A
O4           Zr9   2.443       .  S
O4           C15   1.291       .  A
O5          Zr39   2.438       .  S
O5           C15   1.291       .  A
O6          Zr38   2.439       .  S
O6           C14   1.291   1_565  A
O7           Zr9   2.428       .  S
O7           C13   1.289       .  A
O8           Zr9   2.430       .  S
O8           C12   1.289       .  A
Zr9          O10   2.338       .  S
Zr9          O11   2.338       .  S
Zr9          O19   2.344       .  S
Zr9          O17   2.342       .  S
O10         Zr36   2.347       .  S
O10         Zr39   2.335       .  S
O11         Zr37   2.352       .  S
O11         Zr38   2.333   1_545  S
C12         C960   1.434       .  S
C13         C944   1.434       .  S
C14         C939   1.437       .  S
C15         C950   1.432       .  S
H16          O17   0.965       .  S
O17         Zr36   2.329       .  S
O17         Zr38   2.343   1_545  S
H18          O19   0.964       .  S
O19         Zr37   2.328       .  S
O19         Zr39   2.340       .  S
O20         Zr36   2.447   1_565  S
O20          C43   1.293       .  A
O21         Zr37   2.457   1_565  S
O21          C44   1.295       .  A
O22         Zr38   2.428       .  S
O22          C45   1.288       .  A
O23         Zr39   2.426       .  S
O23          C46   1.288       .  A
O24         Zr39   2.425       .  S
O24          C47   1.288       .  A
O25         Zr38   2.433       .  S
O25          C48   1.290       .  A
O26         Zr40   2.432       .  S
O26          C49   1.290       .  A
O27         Zr40   2.432       .  S
O27          C50   1.289   1_565  A
O28         Zr38   2.427       .  S
O28          C49   1.288       .  A
O29         Zr39   2.433       .  S
O29          C50   1.289       .  A
O30         Zr36   2.453   1_565  S
O30          C45   1.294       .  A
O31         Zr37   2.449   1_565  S
O31          C48   1.293       .  A
O32         Zr37   2.450       .  S
O32          C47   1.293       .  A
O33         Zr36   2.446       .  S
O33          C46   1.293       .  A
O34         Zr40   2.444       .  S
O34          C43   1.292       .  A
O35         Zr40   2.442       .  S
O35          C44   1.291       .  A
Zr36         O42   2.344   1_545  S
Zr36         O54   2.337       .  S
Zr37         O41   2.345       .  S
Zr37         O52   2.333   1_545  S
Zr38         O42   2.335       .  S
Zr38         O52   2.350       .  S
Zr39         O41   2.335       .  S
Zr39         O54   2.347       .  S
Zr40         O41   2.335   1_565  S
Zr40         O42   2.335       .  S
Zr40         O54   2.347   1_565  S
Zr40         O52   2.349       .  S
C43         C948   1.441       .  S
C44         C955   1.444       .  S
C45         C946   1.435       .  S
C46         C941   1.432       .  S
C47         C953   1.432       .  S
C48         C957   1.437       .  S
C49         C952   1.423       .  S
C50         C937   1.424       .  S
H51          O52   0.965       .  S
H53          O54   0.965       .  S
C55          C56   1.534       .  S
C55          C61   1.524       .  S
C55          C59   1.533       .  S
C55         C929   1.458       .  S
C56          H63   1.086       .  S
C56          C57   1.366       .  D
C57          C58   1.536       .  S
C57         C943   1.440       .  S
C58          C62   1.546       .  S
C58          C60   1.540       .  S
C58          H64   1.111       .  S
C59          H65   1.087       .  S
C59          C60   1.363       .  D
C60         C932   1.445       .  S
C61          H66   1.087       .  S
C61          C62   1.362       .  D
C62         C933   1.479       .  S
O67        Zr103   2.436       .  S
O67          C78   1.290       .  A
O68        Zr102   2.431       .  S
O68          C79   1.289       .  A
O69         Zr75   2.455       .  S
O69          C80   1.294       .  A
O70         Zr75   2.452   1_565  S
O70          C81   1.294       .  A
O71        Zr105   2.436       .  S
O71          C81   1.290       .  A
O72        Zr104   2.423       .  S
O72          C80   1.287       .  A
O73         Zr75   2.446   1_565  S
O73          C79   1.293       .  A
O74         Zr75   2.451       .  S
O74          C78   1.293       .  A
Zr75         O76   2.350   1_545  S
Zr75         O77   2.343       .  S
Zr75         O85   2.335       .  S
Zr75         O83   2.333       .  S
O76        Zr102   2.338       .  S
O76        Zr105   2.331       .  S
O77        Zr103   2.336       .  S
O77        Zr104   2.336       .  S
C78         C931   1.439       .  S
C79         C912   1.434       .  S
C80         C915   1.433       .  S
C81         C913   1.439       .  S
H82          O83   0.965       .  S
O83        Zr102   2.345   1_545  S
O83        Zr104   2.344       .  S
H84          O85   0.965       .  S
O85        Zr103   2.350       .  S
O85        Zr105   2.350   1_545  S
O86        Zr102   2.428       .  S
O86         C109   1.289       .  A
O87        Zr103   2.443       .  S
O87         C110   1.291       .  A
O88        Zr104   2.440       .  S
O88         C111   1.291       .  A
O89        Zr105   2.448       .  S
O89         C112   1.292       .  A
O90        Zr105   2.428       .  S
O90         C113   1.289   1_565  A
O91        Zr104   2.434       .  S
O91         C114   1.290       .  A
O92        Zr106   2.447       .  S
O92         C115   1.292       .  A
O93        Zr106   2.445   1_565  S
O93         C116   1.292       .  A
O94        Zr104   2.430       .  S
O94         C115   1.289       .  A
O95        Zr105   2.424       .  S
O95         C116   1.288       .  A
O96        Zr102   2.441       .  S
O96         C111   1.291   1_565  A
O97        Zr103   2.432       .  S
O97         C114   1.289       .  A
O98        Zr103   2.432       .  S
O98         C113   1.289       .  A
O99        Zr102   2.449       .  S
O99         C112   1.292       .  A
O100       Zr106   2.442   1_565  S
O100        C109   1.292       .  A
O101       Zr106   2.454       .  S
O101        C110   1.294       .  A
Zr102       O108   2.340   1_565  S
Zr102       O120   2.341       .  S
Zr103       O107   2.331       .  S
Zr103       O118   2.346       .  S
Zr104       O108   2.335       .  S
Zr104       O118   2.348       .  S
Zr105       O107   2.337   1_565  S
Zr105       O120   2.340       .  S
Zr106       O107   2.339       .  S
Zr106       O108   2.350       .  S
Zr106       O120   2.334   1_545  S
Zr106       O118   2.333       .  S
C109        C925   1.430       .  S
C110        C921   1.446       .  S
C111        C907   1.432       .  S
C112        C919   1.439       .  S
C113        C910   1.424       .  S
C114        C917   1.426       .  S
C115        C928   1.434       .  S
C116        C923   1.431       .  S
H117        O118   0.965       .  S
H119        O120   0.964       .  S
C121        C122   1.535   1_554  S
C121        C127   1.522       .  S
C121        C125   1.533       .  S
C121        C902   1.460       .  S
C122        H129   1.087       .  S
C122        C123   1.365       .  D
C123        C124   1.541   1_556  S
C123        C956   1.449       .  S
C124        C128   1.548       .  S
C124        C126   1.536       .  S
C124        H130   1.112       .  S
C125        H131   1.087       .  S
C125        C126   1.365       .  D
C126        C926   1.437       .  S
C127        H132   1.087       .  S
C127        C128   1.361       .  D
C128        C903   1.480       .  S
C133        C134   1.535   1_556  S
C133        C139   1.523       .  S
C133        C137   1.535       .  S
C133        C895   1.467       .  S
C134        H141   1.087       .  S
C134        C135   1.367       .  D
C135        C136   1.535   1_554  S
C135        C924   1.437       .  S
C136        C140   1.541       .  S
C136        C138   1.539       .  S
C136        H142   1.112       .  S
C137        H143   1.087       .  S
C137        C138   1.366       .  D
C138        C958   1.443       .  S
C139        H144   1.087       .  S
C139        C140   1.359       .  D
C140        C897   1.471       .  S
C145        C146   1.537       .  S
C145        C151   1.523       .  S
C145        C149   1.537       .  S
C145        C890   1.471       .  S
C146        H153   1.086       .  S
C146        C147   1.367       .  D
C147        C148   1.539       .  S
C147        C914   1.446       .  S
C148        C152   1.542       .  S
C148        C150   1.536       .  S
C148        H154   1.112       .  S
C149        H155   1.086       .  S
C149        C150   1.368       .  D
C150        C945   1.441       .  S
C151        H156   1.087       .  S
C151        C152   1.359       .  D
C152        C891   1.471       .  S
C157        C158   1.535   1_556  S
C157        C163   1.524       .  S
C157        C161   1.536       .  S
C157        C884   1.467       .  S
C158        H165   1.086       .  S
C158        C159   1.365       .  D
C159        C160   1.537   1_554  S
C159        C927   1.441       .  S
C160        C164   1.540       .  S
C160        C162   1.536       .  S
C160        H166   1.112       .  S
C161        H167   1.086       .  S
C161        C162   1.366       .  D
C162        C954   1.439       .  S
C163        H168   1.087   1_556  S
C163        C164   1.359       .  D
C164        C885   1.468   1_556  S
C169        C170   1.535       .  S
C169        C175   1.523       .  S
C169        C173   1.536   1_556  S
C169        C878   1.467       .  S
C170        H177   1.086       .  S
C170        C171   1.366       .  D
C171        C172   1.537       .  S
C171        C959   1.440       .  S
C172        C176   1.549       .  S
C172        C174   1.542   1_556  S
C172        H178   1.112       .  S
C173        H179   1.087       .  S
C173        C174   1.366       .  D
C174        C922   1.452       .  S
C175        H180   1.087       .  S
C175        C176   1.363       .  D
C176        C880   1.482       .  S
C181        C182   1.536       .  S
C181        C187   1.523       .  S
C181        C185   1.534       .  S
C181        C871   1.465       .  S
C182        H189   1.086       .  S
C182        C183   1.367       .  D
C183        C184   1.533       .  S
C183        C916   1.439       .  S
C184        C188   1.538       .  S
C184        C186   1.537       .  S
C184        H190   1.112       .  S
C185        H191   1.087       .  S
C185        C186   1.365       .  D
C186        C942   1.438       .  S
C187        H192   1.087       .  S
C187        C188   1.359       .  D
C188        C874   1.466       .  S
C193        C194   1.534       .  S
C193        C199   1.520       .  S
C193        C197   1.535       .  S
C193        C865   1.461       .  S
C194        H201   1.087       .  S
C194        C195   1.364       .  D
C195        C196   1.541       .  S
C195        C947   1.447       .  S
C196        C200   1.548       .  S
C196        C198   1.538       .  S
C196        H202   1.112       .  S
C197        H203   1.086       .  S
C197        C198   1.367       .  D
C198        C911   1.441       .  S
C199        H204   1.087       .  S
C199        C200   1.360       .  D
C200        C867   1.478       .  S
O205       Zr241   2.448       .  S
O205        C216   1.292       .  A
O206       Zr240   2.440       .  S
O206        C217   1.290   1_455  A
O207       Zr213   2.422       .  S
O207        C218   1.288       .  A
O208       Zr213   2.427       .  S
O208        C219   1.288       .  A
O209       Zr243   2.458       .  S
O209        C219   1.295       .  A
O210       Zr242   2.440       .  S
O210        C218   1.291       .  A
O211       Zr213   2.448       .  S
O211        C217   1.292       .  A
O212       Zr213   2.442       .  S
O212        C216   1.291       .  A
Zr213       O214   2.335       .  S
Zr213       O215   2.337       .  S
Zr213       O223   2.346       .  S
Zr213       O221   2.343       .  S
O214       Zr240   2.337   1_655  S
O214       Zr243   2.351       .  S
O215       Zr241   2.329       .  S
O215       Zr242   2.346       .  S
C216        C889   1.437       .  S
C217        C847   1.436       .  S
C218        C853   1.427       .  S
C219        C861   1.437       .  S
H220        O221   0.964       .  S
O221       Zr240   2.342   1_655  S
O221       Zr242   2.334       .  S
H222        O223   0.964       .  S
O223       Zr241   2.346       .  S
O223       Zr243   2.335       .  S
O224       Zr240   2.436       .  S
O224        C247   1.290       .  A
O225       Zr241   2.437       .  S
O225        C248   1.291       .  A
O226       Zr242   2.456   1_455  S
O226        C249   1.294       .  A
O227       Zr243   2.440   1_455  S
O227        C250   1.291       .  A
O228       Zr243   2.442       .  S
O228        C251   1.292       .  A
O229       Zr242   2.459       .  S
O229        C252   1.295       .  A
O230       Zr244   2.435       .  S
O230        C253   1.290       .  A
O231       Zr244   2.438       .  S
O231        C254   1.290       .  A
O232       Zr242   2.448   1_455  S
O232        C253   1.293       .  A
O233       Zr243   2.466   1_455  S
O233        C254   1.296       .  A
O234       Zr240   2.435       .  S
O234        C249   1.290       .  A
O235       Zr241   2.444       .  S
O235        C252   1.292       .  A
O236       Zr241   2.428       .  S
O236        C251   1.289       .  A
O237       Zr240   2.433       .  S
O237        C250   1.290       .  A
O238       Zr244   2.437       .  S
O238        C247   1.290       .  A
O239       Zr244   2.428       .  S
O239        C248   1.289   1_455  A
Zr240       O246   2.338       .  S
Zr240       O258   2.350       .  S
Zr241       O245   2.342       .  S
Zr241       O256   2.350       .  S
Zr242       O246   2.347   1_655  S
Zr242       O256   2.333       .  S
Zr243       O245   2.342       .  S
Zr243       O258   2.332   1_655  S
Zr244       O245   2.335   1_455  S
Zr244       O246   2.337       .  S
Zr244       O258   2.344       .  S
Zr244       O256   2.352   1_455  S
C247        C866   1.429       .  S
C248        C845   1.425       .  S
C249        C851   1.439       .  S
C250        C863   1.430       .  S
C251        C859   1.428       .  S
C252        C855   1.447       .  S
C253        C849   1.436       .  S
C254        C858   1.446       .  S
H255        O256   0.965       .  S
H257        O258   0.965       .  S
O259       Zr295   2.428       .  S
O259        C270   1.289       .  A
O260       Zr294   2.436       .  S
O260        C271   1.290   1_455  A
O261       Zr267   2.445       .  S
O261        C272   1.292       .  A
O262       Zr267   2.435       .  S
O262        C273   1.290       .  A
O263       Zr297   2.448       .  S
O263        C273   1.293       .  A
O264       Zr296   2.465       .  S
O264        C272   1.296       .  A
O265       Zr267   2.429       .  S
O265        C271   1.288       .  A
O266       Zr267   2.427       .  S
O266        C270   1.288       .  A
Zr267       O268   2.344       .  S
Zr267       O269   2.340       .  S
Zr267       O277   2.339       .  S
Zr267       O275   2.330       .  S
O268       Zr294   2.340   1_655  S
O268       Zr297   2.341       .  S
O269       Zr295   2.340       .  S
O269       Zr296   2.335       .  S
C270        C930   1.424       .  S
C271        C828   1.428       .  S
C272        C840   1.448       .  S
C273        C832   1.434       .  S
H274        O275   0.965       .  S
O275       Zr294   2.339   1_655  S
O275       Zr296   2.353       .  S
H276        O277   0.965       .  S
O277       Zr295   2.336       .  S
O277       Zr297   2.354       .  S
O278       Zr294   2.438       .  S
O278        C301   1.290       .  A
O279       Zr295   2.432       .  S
O279        C302   1.289       .  A
O280       Zr296   2.439   1_455  S
O280        C303   1.292       .  A
O281       Zr297   2.465   1_455  S
O281        C304   1.296       .  A
O282       Zr297   2.461       .  S
O282        C305   1.295       .  A
O283       Zr296   2.448       .  S
O283        C306   1.293       .  A
O284       Zr298   2.429       .  S
O284        C307   1.289       .  A
O285       Zr298   2.426       .  S
O285        C308   1.289       .  A
O286       Zr296   2.458   1_455  S
O286        C307   1.295       .  A
O287       Zr297   2.445   1_455  S
O287        C308   1.292       .  A
O288       Zr294   2.426       .  S
O288        C303   1.289       .  A
O289       Zr295   2.432       .  S
O289        C306   1.289       .  A
O290       Zr295   2.434       .  S
O290        C305   1.290       .  A
O291       Zr294   2.441       .  S
O291        C304   1.291       .  A
O292       Zr298   2.432       .  S
O292        C301   1.289       .  A
O293       Zr298   2.439       .  S
O293        C302   1.290   1_455  A
Zr294       O300   2.338       .  S
Zr294       O312   2.332       .  S
Zr295       O299   2.335       .  S
Zr295       O310   2.337       .  S
Zr296       O300   2.338   1_655  S
Zr296       O310   2.358       .  S
Zr297       O299   2.339       .  S
Zr297       O312   2.353   1_655  S
Zr298       O299   2.336   1_455  S
Zr298       O300   2.336       .  S
Zr298       O312   2.337       .  S
Zr298       O310   2.336   1_455  S
C301        C872   1.432       .  S
C302        C825   1.432       .  S
C303        C837   1.426       .  S
C304        C833   1.446       .  S
C305        C830   1.441       .  S
C306        C841   1.433       .  S
C307        C843   1.437       .  S
C308        C836   1.427       .  S
H309        O310   0.965       .  S
H311        O312   0.965       .  S
C313        C314   1.534       .  S
C313        C319   1.523       .  S
C313        C317   1.531       .  S
C313        C819   1.459       .  S
C314        H321   1.087       .  S
C314        C315   1.365       .  D
C315        C316   1.539       .  S
C315        C831   1.440       .  S
C316        C320   1.541       .  S
C316        C318   1.536       .  S
C316        H322   1.112       .  S
C317        H323   1.087       .  S
C317        C318   1.363       .  D
C318        C854   1.434       .  S
C319        H324   1.087       .  S
C319        C320   1.359       .  D
C320        C821   1.467       .  S
C325        C326   1.538       .  S
C325        C331   1.522       .  S
C325        C329   1.535       .  S
C325        C813   1.465       .  S
C326        H333   1.086       .  S
C326        C327   1.369       .  D
C327        C328   1.539       .  S
C327        C852   1.446       .  S
C328        C332   1.550       .  S
C328        C330   1.542       .  S
C328        H334   1.111       .  S
C329        H335   1.087       .  S
C329        C330   1.364       .  D
C330        C834   1.452       .  S
C331        H336   1.087       .  S
C331        C332   1.361       .  D
C332        C815   1.483       .  S
C337        C338   1.533   1_545  S
C337        C343   1.523       .  S
C337        C341   1.534       .  S
C337        C909   1.457       .  S
C338        H345   1.087       .  S
C338        C339   1.364       .  D
C339        C340   1.534   1_565  S
C339        C860   1.434       .  S
C340        C344   1.539       .  S
C340        C342   1.538       .  S
C340        H346   1.111       .  S
C341        H347   1.087       .  S
C341        C342   1.364       .  D
C342        C842   1.440       .  S
C343        H348   1.087       .  S
C343        C344   1.360       .  D
C344        C810   1.467       .  S
C349        C350   1.538       .  S
C349        C355   1.524       .  S
C349        C353   1.537   1_545  S
C349        C940   1.469       .  S
C350        H357   1.086       .  S
C350        C351   1.366       .  D
C351        C352   1.541       .  S
C351        C839   1.453       .  S
C352        C356   1.547   1_545  S
C352        C354   1.537   1_545  S
C352        H358   1.112       .  S
C353        H359   1.086       .  S
C353        C354   1.368       .  D
C354        C862   1.443       .  S
C355        H360   1.087   1_545  S
C355        C356   1.361   1_545  D
C356        C805   1.482       .  S
C361        C362   1.534       .  S
C361        C367   1.521       .  S
C361        C365   1.537       .  S
C361        C799   1.464       .  S
C362        H369   1.087       .  S
C362        C363   1.365       .  D
C363        C364   1.544       .  S
C363        C856   1.453       .  S
C364        C368   1.552       .  S
C364        C366   1.540       .  S
C364        H370   1.111       .  S
C365        H371   1.086       .  S
C365        C366   1.368       .  D
C366        C829   1.447       .  S
C367        H372   1.087       .  S
C367        C368   1.361       .  D
C368        C802   1.485       .  S
C373        C374   1.530       .  S
C373        C379   1.524       .  S
C373        C377   1.534       .  S
C373        C793   1.456       .  S
C374        H381   1.087       .  S
C374        C375   1.362       .  D
C375        C376   1.535       .  S
C375        C835   1.433       .  S
C376        C380   1.540       .  S
C376        C378   1.539       .  S
C376        H382   1.111       .  S
C377        H383   1.087       .  S
C377        C378   1.364       .  D
C378        C850   1.442       .  S
C379        H384   1.087       .  S
C379        C380   1.361       .  D
C380        C795   1.467       .  S
C385        C386   1.537       .  S
C385        C391   1.522       .  S
C385        C389   1.538   1_545  S
C385        C908   1.465       .  S
C386        H393   1.086       .  S
C386        C387   1.368       .  D
C387        C388   1.537       .  S
C387        C844   1.443       .  S
C388        C392   1.547       .  S
C388        C390   1.540   1_545  S
C388        H394   1.111       .  S
C389        H395   1.087       .  S
C389        C390   1.367       .  D
C390        C857   1.451       .  S
C391        H396   1.087       .  S
C391        C392   1.361       .  D
C392        C789   1.480       .  S
C397        C398   1.532   1_545  S
C397        C403   1.522       .  S
C397        C401   1.532       .  S
C397        C938   1.457       .  S
C398        H405   1.087       .  S
C398        C399   1.363       .  D
C399        C400   1.538   1_565  S
C399        C864   1.437       .  S
C400        C404   1.539       .  S
C400        C402   1.534       .  S
C400        H406   1.112       .  S
C401        H407   1.087       .  S
C401        C402   1.364       .  D
C402        C838   1.432       .  S
C403        H408   1.087       .  S
C403        C404   1.359       .  D
C404        C785   1.465       .  S
O409       Zr445   2.441       .  S
O409        C420   1.291       .  A
O410       Zr444   2.430       .  S
O410        C421   1.289       .  A
O411       Zr417   2.427       .  S
O411        C422   1.289       .  A
O412       Zr417   2.426       .  S
O412        C423   1.289       .  A
O413       Zr447   2.432   1_554  S
O413        C423   1.290       .  A
O414       Zr446   2.463   1_554  S
O414        C422   1.296       .  A
O415       Zr417   2.439       .  S
O415        C421   1.290       .  A
O416       Zr417   2.436       .  S
O416        C420   1.290   1_554  A
Zr417       O418   2.337       .  S
Zr417       O419   2.339   1_554  S
Zr417       O427   2.334   1_554  S
Zr417       O425   2.334       .  S
O418       Zr444   2.339       .  S
O418       Zr447   2.338   1_554  S
O419       Zr445   2.340       .  S
O419       Zr446   2.339       .  S
C420        C896   1.434       .  S
C421        C800   1.431       .  S
C422        C771   1.437       .  S
C423        C784   1.422       .  S
H424        O425   0.965       .  S
O425       Zr444   2.337       .  S
O425       Zr446   2.354   1_554  S
H426        O427   0.965       .  S
O427       Zr445   2.330       .  S
O427       Zr447   2.352       .  S
O428       Zr444   2.437       .  S
O428        C451   1.290   1_554  A
O429       Zr445   2.432       .  S
O429        C452   1.289       .  A
O430       Zr446   2.442   1_554  S
O430        C453   1.292       .  A
O431       Zr447   2.455   1_554  S
O431        C454   1.294       .  A
O432       Zr447   2.457       .  S
O432        C455   1.295       .  A
O433       Zr446   2.444       .  S
O433        C456   1.292       .  A
O434       Zr448   2.445       .  S
O434        C457   1.292       .  A
O435       Zr448   2.442       .  S
O435        C458   1.291       .  A
O436       Zr446   2.466       .  S
O436        C457   1.296       .  A
O437       Zr447   2.443       .  S
O437        C458   1.292       .  A
O438       Zr444   2.433       .  S
O438        C453   1.290       .  A
O439       Zr445   2.429       .  S
O439        C456   1.289       .  A
O440       Zr445   2.447       .  S
O440        C455   1.292       .  A
O441       Zr444   2.431       .  S
O441        C454   1.289       .  A
O442       Zr448   2.437       .  S
O442        C451   1.290       .  A
O443       Zr448   2.426       .  S
O443        C452   1.288       .  A
Zr444       O450   2.340   1_554  S
Zr444       O462   2.334   1_554  S
Zr445       O449   2.343       .  S
Zr445       O460   2.340       .  S
Zr446       O450   2.342       .  S
Zr446       O460   2.350       .  S
Zr447       O449   2.338       .  S
Zr447       O462   2.352       .  S
Zr448       O449   2.346       .  S
Zr448       O450   2.340       .  S
Zr448       O462   2.335       .  S
Zr448       O460   2.335       .  S
C451        C877   1.434       .  S
C452        C820   1.426       .  S
C453        C769   1.431       .  S
C454        C778   1.436       .  S
C455        C782   1.445       .  S
C456        C774   1.428       .  S
C457        C775   1.448       .  S
C458        C779   1.436       .  S
H459        O460   0.965       .  S
H461        O462   0.965       .  S
O463       Zr499   2.427       .  S
O463        C474   1.288   1_556  A
O464       Zr498   2.440       .  S
O464        C475   1.291       .  A
O465       Zr471   2.437       .  S
O465        C476   1.290       .  A
O466       Zr471   2.441       .  S
O466        C477   1.291       .  A
O467       Zr501   2.457       .  S
O467        C477   1.295       .  A
O468       Zr500   2.446       .  S
O468        C476   1.292       .  A
O469       Zr471   2.422       .  S
O469        C475   1.288       .  A
O470       Zr471   2.440       .  S
O470        C474   1.291       .  A
Zr471       O472   2.337       .  S
Zr471       O473   2.332       .  S
Zr471       O481   2.341       .  S
Zr471       O479   2.354       .  S
O472       Zr498   2.339       .  S
O472       Zr501   2.344       .  S
O473       Zr499   2.334   1_554  S
O473       Zr500   2.345       .  S
C474        C901   1.427       .  S
C475        C794   1.423       .  S
C476        C757   1.436       .  S
C477        C765   1.445       .  S
H478        O479   0.965       .  S
O479       Zr498   2.350       .  S
O479       Zr500   2.333       .  S
H480        O481   0.965       .  S
O481       Zr499   2.345   1_554  S
O481       Zr501   2.335       .  S
O482       Zr498   2.447       .  S
O482        C505   1.292   1_554  A
O483       Zr499   2.430       .  S
O483        C506   1.289       .  A
O484       Zr500   2.454       .  S
O484        C507   1.294       .  A
O485       Zr501   2.445       .  S
O485        C508   1.292       .  A
O486       Zr501   2.442   1_556  S
O486        C509   1.292       .  A
O487       Zr500   2.457   1_556  S
O487        C510   1.295       .  A
O488       Zr502   2.419       .  S
O488        C511   1.287       .  A
O489       Zr502   2.433       .  S
O489        C512   1.290       .  A
O490       Zr500   2.438   1_556  S
O490        C511   1.291       .  A
O491       Zr501   2.458   1_556  S
O491        C512   1.295       .  A
O492       Zr498   2.440       .  S
O492        C507   1.291       .  A
O493       Zr499   2.432       .  S
O493        C510   1.289       .  A
O494       Zr499   2.430       .  S
O494        C509   1.289       .  A
O495       Zr498   2.424       .  S
O495        C508   1.288       .  A
O496       Zr502   2.441       .  S
O496        C505   1.291       .  A
O497       Zr502   2.449       .  S
O497        C506   1.293       .  A
Zr498       O504   2.329   1_554  S
Zr498       O516   2.346       .  S
Zr499       O503   2.339       .  S
Zr499       O514   2.341       .  S
Zr500       O504   2.345   1_554  S
Zr500       O514   2.331   1_554  S
Zr501       O503   2.351   1_554  S
Zr501       O516   2.328       .  S
Zr502       O503   2.335       .  S
Zr502       O504   2.339       .  S
Zr502       O516   2.343   1_556  S
Zr502       O514   2.345       .  S
C505        C883   1.434       .  S
C506        C814   1.432       .  S
C507        C755   1.443       .  S
C508        C768   1.429       .  S
C509        C763   1.432       .  S
C510        C759   1.439       .  S
C511        C754   1.424       .  S
C512        C761   1.440       .  S
H513        O514   0.964       .  S
H515        O516   0.964       .  S
C517        C518   1.538   1_655  S
C517        C523   1.524   1_655  S
C517        C521   1.535       .  S
C517        C848   1.469       .  S
C518        H525   1.086       .  S
C518        C519   1.369       .  D
C519        C520   1.538       .  S
C519        C760   1.445       .  S
C520        C524   1.548       .  S
C520        C522   1.542   1_455  S
C520        H526   1.111       .  S
C521        H527   1.087       .  S
C521        C522   1.365       .  D
C522        C781   1.451       .  S
C523        H528   1.087       .  S
C523        C524   1.362       .  D
C524        C749   1.483       .  S
C529        C530   1.535       .  S
C529        C535   1.524       .  S
C529        C533   1.530   1_655  S
C529        C827   1.461       .  S
C530        H537   1.087       .  S
C530        C531   1.365       .  D
C531        C532   1.540       .  S
C531        C780   1.442       .  S
C532        C536   1.540       .  S
C532        C534   1.534   1_655  S
C532        H538   1.112       .  S
C533        H539   1.087       .  S
C533        C534   1.363       .  D
C534        C753   1.430       .  S
C535        H540   1.087       .  S
C535        C536   1.360       .  D
C536        C745   1.468       .  S
C541        C542   1.532       .  S
C541        C547   1.522       .  S
C541        C545   1.532       .  S
C541        C951   1.457       .  S
C542        H549   1.087       .  S
C542        C543   1.364       .  D
C543        C544   1.539       .  S
C543        C764   1.438       .  S
C544        C548   1.540       .  S
C544        C546   1.535       .  S
C544        H550   1.111       .  S
C545        H551   1.087       .  S
C545        C546   1.364       .  D
C546        C773   1.434       .  S
C547        H552   1.087       .  S
C547        C548   1.360       .  D
C548        C741   1.466       .  S
C553        C554   1.537       .  S
C553        C559   1.524       .  S
C553        C557   1.537       .  S
C553        C920   1.472       .  S
C554        H561   1.086       .  S
C554        C555   1.368       .  D
C555        C556   1.538       .  S
C555        C772   1.443       .  S
C556        C560   1.548       .  S
C556        C558   1.540       .  S
C556        H562   1.112       .  S
C557        H563   1.086       .  S
C557        C558   1.366       .  D
C558        C766   1.451       .  S
C559        H564   1.087       .  S
C559        C560   1.362       .  D
C560        C738   1.483       .  S
C565        C566   1.534   1_655  S
C565        C571   1.521       .  S
C565        C569   1.535       .  S
C565        C826   1.464       .  S
C566        H573   1.087       .  S
C566        C567   1.364       .  D
C567        C568   1.542   1_455  S
C567        C756   1.448       .  S
C568        C572   1.550       .  S
C568        C570   1.540       .  S
C568        H574   1.111       .  S
C569        H575   1.086       .  S
C569        C570   1.367       .  D
C570        C777   1.443       .  S
C571        H576   1.087       .  S
C571        C572   1.361       .  D
C572        C734   1.483       .  S
C577        C578   1.528       .  S
C577        C583   1.523       .  S
C577        C581   1.536   1_655  S
C577        C846   1.458       .  S
C578        H585   1.087       .  S
C578        C579   1.361       .  D
C579        C580   1.534       .  S
C579        C783   1.429       .  S
C580        C584   1.538       .  S
C580        C582   1.538   1_655  S
C580        H586   1.112       .  S
C581        H587   1.086       .  S
C581        C582   1.366       .  D
C582        C758   1.442       .  S
C583        H588   1.087       .  S
C583        C584   1.360       .  D
C584        C730   1.464   1_655  S
C589        C590   1.537       .  S
C589        C595   1.520       .  S
C589        C593   1.538       .  S
C589        C949   1.466       .  S
C590        H597   1.087       .  S
C590        C591   1.367       .  D
C591        C592   1.543       .  S
C591        C776   1.454       .  S
C592        C596   1.549       .  S
C592        C594   1.537       .  S
C592        H598   1.111       .  S
C593        H599   1.086       .  S
C593        C594   1.369       .  D
C594        C762   1.445       .  S
C595        H600   1.087       .  S
C595        C596   1.359       .  D
C596        C725   1.481       .  S
C601        C602   1.532       .  S
C601        C607   1.524       .  S
C601        C605   1.531       .  S
C601        C918   1.460       .  S
C602        H609   1.087       .  S
C602        C603   1.364       .  D
C603        C604   1.536       .  S
C603        C767   1.435       .  S
C604        C608   1.541       .  S
C604        C606   1.540       .  S
C604        H610   1.111       .  S
C605        H611   1.087       .  S
C605        C606   1.364       .  D
C606        C770   1.438       .  S
C607        H612   1.087       .  S
C607        C608   1.361       .  D
C608        C721   1.470       .  S
O613       Zr649   2.478       .  S
O613        C624   1.299       .  A
O614       Zr648   2.452       .  S
O614        C625   1.293       .  A
O615       Zr621   2.454       .  S
O615        C626   1.293       .  A
O616       Zr621   2.479       .  S
O616        C627   1.299       .  A
O617       Zr651   2.410       .  S
O617        C627   1.287       .  A
O618       Zr650   2.417       .  S
O618        C626   1.290       .  A
O619       Zr621   2.424       .  S
O619        C625   1.291       .  A
O620       Zr621   2.399       .  S
O620        C624   1.286       .  A
Zr621       O622   2.326       .  S
Zr621       O623   2.345       .  S
Zr621       O631   2.335       .  S
Zr621       O629   2.346       .  S
O622       Zr648   2.341       .  S
O622       Zr651   2.334       .  S
O623       Zr649   2.339       .  S
O623       Zr650   2.330       .  S
C624        C934   1.475       .  S
C625        C722   1.482       .  S
C626        C873   1.479       .  S
C627        C801   1.477       .  S
H628        O629   0.965       .  S
O629       Zr648   2.348       .  S
O629       Zr650   2.349       .  S
H630        O631   0.965       .  S
O631       Zr649   2.333       .  S
O631       Zr651   2.344       .  S
O632       Zr648   2.475       .  S
O632        C655   1.298       .  A
O633       Zr649   2.463       .  S
O633        C656   1.295       .  A
O634       Zr650   2.451       .  S
O634        C657   1.293       .  A
O635       Zr651   2.478       .  S
O635        C658   1.299       .  A
O636       Zr651   2.451       .  S
O636        C659   1.293       .  A
O637       Zr650   2.477       .  S
O637        C660   1.298       .  A
O638       Zr652   2.477       .  S
O638        C661   1.299       .  A
O639       Zr652   2.458       .  S
O639        C662   1.294       .  A
O640       Zr650   2.405       .  S
O640        C661   1.286       .  A
O641       Zr651   2.428       .  S
O641        C662   1.292       .  A
O642       Zr648   2.421       .  S
O642        C657   1.291       .  A
O643       Zr649   2.409       .  S
O643        C660   1.287       .  A
O644       Zr649   2.429       .  S
O644        C659   1.293       .  A
O645       Zr648   2.403       .  S
O645        C658   1.286       .  A
O646       Zr652   2.397       .  S
O646        C655   1.285       .  A
O647       Zr652   2.413       .  S
O647        C656   1.290       .  A
Zr648       O654   2.330       .  S
Zr648       O666   2.336       .  S
Zr649       O653   2.350       .  S
Zr649       O664   2.344       .  S
Zr650       O654   2.340       .  S
Zr650       O664   2.336       .  S
Zr651       O653   2.351       .  S
Zr651       O666   2.331       .  S
Zr652       O653   2.347       .  S
Zr652       O654   2.333       .  S
Zr652       O666   2.342       .  S
Zr652       O664   2.329       .  S
C655        C868   1.471       .  S
C656        C742   1.479       .  S
C657        C796   1.474       .  S
C658        C737   1.477       .  S
C659        C822   1.476       .  S
C660        C726   1.474       .  S
C661        C816   1.477       .  S
C662        C892   1.481       .  S
H663        O664   0.965       .  S
H665        O666   0.965       .  S
O667       Zr703   2.477       .  S
O667        C678   1.299       .  A
O668       Zr702   2.451   1_455  S
O668        C679   1.293       .  A
O669       Zr675   2.477       .  S
O669        C680   1.299       .  A
O670       Zr675   2.447   1_545  S
O670        C681   1.292       .  A
O671       Zr705   2.434       .  S
O671        C681   1.293   1_554  A
O672       Zr704   2.407       .  S
O672        C680   1.287   1_655  A
O673       Zr675   2.424   1_545  S
O673        C679   1.292       .  A
O674       Zr675   2.407       .  S
O674        C678   1.287   1_556  A
Zr675       O676   2.349   1_565  S
Zr675       O677   2.332       .  S
Zr675       O685   2.346   1_566  S
Zr675       O683   2.330   1_455  S
O676       Zr702   2.346   1_455  S
O676       Zr705   2.347   1_556  S
O677       Zr703   2.330   1_556  S
O677       Zr704   2.342   1_455  S
C678        C904   1.475       .  S
C679        C786   1.475       .  S
C680        C750   1.477       .  S
C681        C886   1.475       .  S
H682        O683   0.964       .  S
O683       Zr702   2.345   1_565  S
O683       Zr704   2.335       .  S
H684        O685   0.964       .  S
O685       Zr703   2.338   1_545  S
O685       Zr705   2.333       .  S
O686       Zr702   2.473       .  S
O686        C709   1.298       .  A
O687       Zr703   2.456   1_655  S
O687        C710   1.294       .  A
O688       Zr704   2.481       .  S
O688        C711   1.300       .  A
O689       Zr705   2.458   1_556  S
O689        C712   1.294       .  A
O690       Zr705   2.472       .  S
O690        C713   1.298       .  A
O691       Zr704   2.445   1_554  S
O691        C714   1.292       .  A
O692       Zr706   2.457   1_565  S
O692        C715   1.294       .  A
O693       Zr706   2.475       .  S
O693        C716   1.299       .  A
O694       Zr704   2.422       .  S
O694        C715   1.291   1_556  A
O695       Zr705   2.411       .  S
O695        C716   1.288   1_455  A
O696       Zr702   2.401       .  S
O696        C711   1.286   1_545  A
O697       Zr703   2.421   1_655  S
O697        C714   1.291       .  A
O698       Zr703   2.405   1_545  S
O698        C713   1.287       .  A
O699       Zr702   2.421       .  S
O699        C712   1.291   1_655  A
O700       Zr706   2.400       .  S
O700        C709   1.286   1_554  A
O701       Zr706   2.417       .  S
O701        C710   1.290   1_545  A
Zr702       O708   2.334       .  S
Zr702       O720   2.328   1_556  S
Zr703       O707   2.340   1_465  S
Zr703       O718   2.350   1_455  S
Zr704       O708   2.325   1_565  S
Zr704       O718   2.352   1_556  S
Zr705       O707   2.339   1_455  S
Zr705       O720   2.344   1_455  S
Zr706       O707   2.331       .  S
Zr706       O708   2.340   1_554  S
Zr706       O720   2.336       .  S
Zr706       O718   2.346   1_545  S
C709        C879   1.474       .  S
C710        C809   1.477       .  S
C711        C806   1.476       .  S
C712        C746   1.478       .  S
C713        C790   1.475       .  S
C714        C729   1.473       .  S
C715        C898   1.482       .  S
C716        C733   1.475       .  S
H717        O718   0.960       .  S
H719        O720   0.964       .  S
C721        H723   1.087       .  S
C721        C722   1.346       .  D
C722        H724   1.086       .  S
C725        H727   1.086       .  S
C725        C726   1.355       .  D
C726        H728   1.086       .  S
C729        H731   1.087       .  S
C729        C730   1.342   1_655  D
C730        H732   1.087       .  S
C733        H735   1.086       .  S
C733        C734   1.354       .  D
C734        H736   1.087       .  S
C737        H739   1.086       .  S
C737        C738   1.354       .  D
C738        H740   1.087       .  S
C741        H743   1.087       .  S
C741        C742   1.346       .  D
C742        H744   1.086       .  S
C745        H747   1.087       .  S
C745        C746   1.345   1_655  D
C746        H748   1.086       .  S
C749        H751   1.086   1_455  S
C749        C750   1.354       .  D
C750        H752   1.086       .  S
C753        C754   1.199       .  T
C755        C756   1.210       .  T
C757        C758   1.206       .  T
C759        C760   1.208       .  T
C761        C762   1.208       .  T
C763        C764   1.204       .  T
C765        C766   1.212       .  T
C767        C768   1.202       .  T
C769        C770   1.204       .  T
C771        C772   1.207       .  T
C773        C774   1.202       .  T
C775        C776   1.214       .  T
C777        C778   1.207       .  T
C779        C780   1.206       .  T
C781        C782   1.211       .  T
C783        C784   1.198       .  T
C785        H787   1.087   1_545  S
C785        C786   1.343       .  D
C786        H788   1.087       .  S
C789        H791   1.086       .  S
C789        C790   1.353       .  D
C790        H792   1.086       .  S
C793        C794   1.199       .  T
C795        H797   1.087       .  S
C795        C796   1.343       .  D
C796        H798   1.087       .  S
C799        C800   1.204       .  T
C801        H803   1.086       .  S
C801        C802   1.355       .  D
C802        H804   1.086       .  S
C805        H807   1.087   1_565  S
C805        C806   1.354       .  D
C806        H808   1.086       .  S
C809        H811   1.086       .  S
C809        C810   1.344   1_565  D
C810        H812   1.087       .  S
C813        C814   1.205       .  T
C815        H817   1.086       .  S
C815        C816   1.355       .  D
C816        H818   1.086       .  S
C819        C820   1.201       .  T
C821        H823   1.087       .  S
C821        C822   1.342       .  D
C822        H824   1.087       .  S
C825        C826   1.204       .  T
C827        C828   1.202       .  T
C829        C830   1.209       .  T
C831        C832   1.205       .  T
C833        C834   1.212       .  T
C835        C836   1.201       .  T
C837        C838   1.200       .  T
C839        C840   1.213       .  T
C841        C842   1.205       .  T
C843        C844   1.207       .  T
C845        C846   1.200       .  T
C847        C848   1.207       .  T
C849        C850   1.206       .  T
C851        C852   1.208       .  T
C853        C854   1.201       .  T
C855        C856   1.213       .  T
C857        C858   1.212       .  T
C859        C860   1.202       .  T
C861        C862   1.207       .  T
C863        C864   1.203       .  T
C865        C866   1.203       .  T
C867        H869   1.087       .  S
C867        C868   1.353       .  D
C868        H870   1.086       .  S
C871        C872   1.204       .  T
C873        H875   1.087       .  S
C873        C874   1.344       .  D
C874        H876   1.087       .  S
C877        C878   1.206       .  T
C879        H881   1.086       .  S
C879        C880   1.353       .  D
C880        H882   1.087   1_556  S
C883        C884   1.206       .  T
C885        H887   1.087       .  S
C885        C886   1.342   1_554  D
C886        H888   1.087       .  S
C889        C890   1.208       .  T
C891        H893   1.087       .  S
C891        C892   1.345       .  D
C892        H894   1.086       .  S
C895        C896   1.206       .  T
C897        H899   1.087       .  S
C897        C898   1.346   1_556  D
C898        H900   1.086       .  S
C901        C902   1.202       .  T
C903        H905   1.087   1_554  S
C903        C904   1.353       .  D
C904        H906   1.086       .  S
C907        C908   1.205       .  T
C909        C910   1.200       .  T
C911        C912   1.205       .  T
C913        C914   1.208       .  T
C915        C916   1.204       .  T
C917        C918   1.201       .  T
C919        C920   1.209       .  T
C921        C922   1.212       .  T
C923        C924   1.203       .  T
C925        C926   1.203       .  T
C927        C928   1.205       .  T
C929        C930   1.200       .  T
C931        C932   1.208       .  T
C933        H935   1.087       .  S
C933        C934   1.353       .  D
C934        H936   1.086       .  S
C937        C938   1.200       .  T
C939        C940   1.207       .  T
C941        C942   1.204       .  T
C943        C944   1.205       .  T
C945        C946   1.206       .  T
C947        C948   1.209       .  T
C949        C950   1.205       .  T
C951        C952   1.199       .  T
C953        C954   1.204       .  T
C955        C956   1.211       .  T
C957        C958   1.207       .  T
C959        C960   1.205       .  T
