geometry optimzed in LAMMPS
_audit_creation_date              2020-11-30 
_audit_creation_method            'lammps2cif' 
_symmetry_space_group_name_H-M    'P1' 
_symmetry_Int_Tables_number       1 
_symmetry_cell_setting            triclinic 
loop_ 
_symmetry_equiv_pos_as_xyz 
  x,y,z 
_cell_length_a                    33.15337297 
_cell_length_b                    43.42353295502616 
_cell_length_c                    33.15784517258816 
_cell_angle_alpha                 90.00366634483413 
_cell_angle_beta                  90.03234626234504 
_cell_angle_gamma                 90.03558509633731 
loop_ 
_atom_site_label 
_atom_site_type_symbol 
_atom_site_fract_x 
_atom_site_fract_y 
_atom_site_fract_z 
_atom_site_charge 
N1          N  0.45300428  0.46526858  0.42449574    -0.06000
N2          N  0.44697170  0.44251332  0.39880461    -0.58100
N3          N  0.42515149  0.03605063  0.45255663    -0.05700
N4          N  0.39960470  0.05889329  0.44659347    -0.60200
N5          N  0.45314334  0.03601082  0.42448758    -0.05300
N6          N  0.44717021  0.05880852  0.39886421    -0.58100
N7          N  0.42508073  0.46516344  0.45265429    -0.04900
N8          N  0.39957079  0.44224158  0.44675309    -0.60600
C9          C  0.41357915  0.42826657  0.41305294     0.96200
C10         C  0.41367860  0.07297707  0.41300211     0.96000
N11         N  0.45309543  0.03606372  0.07568530    -0.06200
N12         N  0.44709005  0.05879851  0.10142236    -0.58700
N13         N  0.42493392  0.46534419  0.04760030    -0.04300
N14         N  0.39924906  0.44256287  0.05358205    -0.59900
N15         N  0.45312349  0.46521321  0.07551311    -0.06200
N16         N  0.44725178  0.44228023  0.10097189    -0.59000
N17         N  0.42521528  0.03623768  0.04745646    -0.03900
N18         N  0.39978877  0.05919033  0.05331159    -0.60000
Mn19       Mn  0.42375718  0.50070427  0.00006434     1.18400
C20         C  0.41378433  0.07311221  0.08707306     0.98300
C21         C  0.41354637  0.42828773  0.08694416     0.98900
N22         N  0.04802442  0.03599619  0.42448080    -0.06200
N23         N  0.05401715  0.05879833  0.39886390    -0.62500
N24         N  0.07596051  0.46520669  0.45259219    -0.05000
N25         N  0.10152546  0.44237370  0.44664929    -0.63200
N26         N  0.04794565  0.46521534  0.42451162    -0.05700
N27         N  0.05393326  0.44240663  0.39890219    -0.62800
N28         N  0.07602777  0.03604415  0.45257247    -0.04600
N29         N  0.10159385  0.05890064  0.44663422    -0.63500
Mn30       Mn  0.00052719  0.00062042  0.42316247     1.10700
C31         C  0.08752762  0.07298274  0.41302915     0.99500
C32         C  0.08745083  0.42825514  0.41305974     0.99600
N33         N  0.04804198  0.46527850  0.07551087    -0.05700
N34         N  0.05402506  0.44245529  0.10109890    -0.61100
N35         N  0.07620421  0.03604872  0.04751071    -0.05100
N36         N  0.10194440  0.05879254  0.05355414    -0.57800
N37         N  0.04805506  0.03615297  0.07544364    -0.06400
N38         N  0.05399359  0.05904779  0.10095881    -0.60700
N39         N  0.07606659  0.46528148  0.04747562    -0.05400
N40         N  0.10166170  0.44247293  0.05345009    -0.57900
Mn41       Mn  0.00058463  0.00066816  0.07686421     1.20200
Mn42       Mn  0.07739291  0.00064460  0.00003003     1.10100
Cl43       Cl  0.00056226  0.00064582  0.00003201    -0.85800
C44         C  0.08757384  0.42833481  0.08699720     0.96500
C45         C  0.08770805  0.07301758  0.08696260     0.96300
N46         N  0.29815753  0.28607366  0.17448757    -0.06000
N47         N  0.30402933  0.30900652  0.14902870    -0.58100
N48         N  0.32606567  0.21504925  0.20254421    -0.05700
N49         N  0.35149230  0.19209670  0.19668899    -0.60200
N50         N  0.29818546  0.21522316  0.17431544    -0.05300
N51         N  0.30419094  0.19248841  0.14857831    -0.58100
N52         N  0.32634713  0.28594268  0.20240039    -0.04900
N53         N  0.35203202  0.30872395  0.19641855    -0.60600
C54         C  0.33773478  0.32299902  0.16305638     0.96200
C55         C  0.33749677  0.17817481  0.16292750     0.96000
N56         N  0.29813775  0.21527609  0.32551320    -0.06200
N57         N  0.30411097  0.19247848  0.35113652    -0.58700
N58         N  0.32620031  0.28612345  0.29734635    -0.04300
N59         N  0.35171021  0.30904525  0.30324759    -0.59900
N60         N  0.29827669  0.28601834  0.32550499    -0.06200
N61         N  0.30430932  0.30877354  0.35119604    -0.59000
N62         N  0.32612968  0.21523624  0.29744400    -0.03900
N63         N  0.35167636  0.19239364  0.30340720    -0.60000
Mn64       Mn  0.32752388  0.25058260  0.24993631     1.18400
C65         C  0.33760257  0.17830987  0.33699864     0.98300
C66         C  0.33770193  0.32302032  0.33694774     0.98900
N67         N  0.20322595  0.21513389  0.17455708    -0.06200
N68         N  0.19728739  0.19223919  0.14904182    -0.62500
N69         N  0.17521439  0.28600544  0.20252518    -0.05000
N70         N  0.14961950  0.30881413  0.19655085    -0.63200
N71         N  0.20323898  0.28600835  0.17448983    -0.05700
N72         N  0.19725598  0.30883160  0.14890192    -0.62800
N73         N  0.17507669  0.21523813  0.20248996    -0.04600
N74         N  0.14933644  0.19249441  0.19644634    -0.63500
Mn75       Mn  0.25069641  0.25061874  0.17313660     1.10700
C76         C  0.16357284  0.17826941  0.16303788     0.99500
C77         C  0.16370735  0.32295226  0.16300372     0.99600
N78         N  0.20333540  0.28607153  0.32548903    -0.05700
N79         N  0.19734785  0.30888028  0.35109841    -0.61100
N80         N  0.17525319  0.21524266  0.29742822    -0.05100
N81         N  0.14968707  0.19238621  0.30336656    -0.57800
N82         N  0.20325655  0.21529063  0.32551990    -0.06400
N83         N  0.19726383  0.19248851  0.35113681    -0.60700
N84         N  0.17532053  0.28608012  0.29740851    -0.05400
N85         N  0.14975555  0.30891313  0.30335141    -0.57900
Mn86       Mn  0.25075375  0.25066643  0.32683819     1.20200
Mn87       Mn  0.17388800  0.25064216  0.24997064     1.10100
Cl88       Cl  0.25071878  0.25064108  0.24996865    -0.85800
C89         C  0.16383025  0.32303174  0.33694087     0.96500
C90         C  0.16375333  0.17830410  0.33697161     0.96300
C91         C  0.16614708  0.13242280  0.11707216     0.23700
C92         C  0.14419096  0.15130157  0.14366766    -0.24400
C93         C  0.10346000  0.14425377  0.15135283     0.18600
C94         C  0.08513394  0.11886427  0.13292830     0.23700
C95         C  0.10709000  0.09998551  0.10633272    -0.24300
C96         C  0.14782103  0.10703330  0.09864764     0.18600
F97         F  0.17038044  0.08893762  0.07404634    -0.14300
F98         F  0.20570355  0.13807469  0.10945001    -0.16600
F99         F  0.04557753  0.11321240  0.14055057    -0.16700
F100        F  0.08090067  0.16234946  0.17595422    -0.14300
C101        C  0.13984338  0.11488720  0.41216214     0.23700
C102        C  0.10692505  0.10000263  0.39365063    -0.24400
C103        C  0.09296156  0.11109633  0.35624922     0.18600
C104        C  0.11143752  0.13639966  0.33783872     0.23700
C105        C  0.14435581  0.15128429  0.35635025    -0.24300
C106        C  0.15831930  0.14019056  0.39375168     0.18600
F107        F  0.18973329  0.15391335  0.41295033    -0.14300
F108        F  0.15421732  0.10519465  0.44834823    -0.16600
F109        F  0.09706353  0.14609220  0.30165267    -0.16700
F110        F  0.06154757  0.09737351  0.33705058    -0.14300
C111        C  0.14289681  0.38887056  0.09061197     0.23700
C112        C  0.10696580  0.40130403  0.10635794    -0.24400
C113        C  0.08995275  0.38773417  0.14098853     0.18600
C114        C  0.10838445  0.36241660  0.15938894     0.23700
C115        C  0.14431545  0.34998310  0.14364299    -0.24300
C116        C  0.16132853  0.36355300  0.10901245     0.18600
F117        F  0.19595891  0.35245285  0.09272430    -0.14300
F118        F  0.16053597  0.40117663  0.05735958    -0.16600
F119        F  0.09074531  0.35011064  0.19264136    -0.16700
F120        F  0.05532240  0.39883427  0.15727683    -0.14300
C121        C  0.36861740  0.11938252  0.08418597     0.23700
C122        C  0.39445478  0.10008085  0.10643192    -0.24400
C123        C  0.40131807  0.10665080  0.14744485     0.18600
C124        C  0.38266404  0.13190465  0.16581439     0.23700
C125        C  0.35682656  0.15120627  0.14356849    -0.24300
C126        C  0.34996339  0.14463636  0.10255553     0.18600
F127        F  0.32593512  0.16305637  0.07980536    -0.14300
F128        F  0.36208534  0.11432331  0.04430058    -0.16600
F129        F  0.38919593  0.13696383  0.20569979    -0.16700
F130        F  0.42534640  0.08823079  0.17019499    -0.14300
C131        C  0.38419023  0.36860697  0.33470005     0.23700
C132        C  0.35702695  0.34999390  0.35636990    -0.24400
C133        C  0.34869892  0.35731607  0.39689010     0.18600
C134        C  0.36709097  0.38267981  0.41530071     0.23700
C135        C  0.39425426  0.40129286  0.39363086    -0.24300
C136        C  0.40258224  0.39397071  0.35311065     0.18600
F137        F  0.42786338  0.41173826  0.33083052    -0.14300
F138        F  0.39243994  0.36271427  0.29533939    -0.16600
F139        F  0.35884135  0.38857252  0.45466138    -0.16700
F140        F  0.32341766  0.33954853  0.41917016    -0.14300
C141        C  0.34311906  0.14027065  0.39384640     0.23700
C142        C  0.35696212  0.15129184  0.35637164    -0.24400
C143        C  0.38971712  0.13632747  0.33776340     0.18600
C144        C  0.40816210  0.11101632  0.35615432     0.23700
C145        C  0.39431900  0.09999511  0.39362906    -0.24300
C146        C  0.36156405  0.11495952  0.41223735     0.18600
F147        F  0.34733971  0.10534970  0.44850989    -0.14300
F148        F  0.31186299  0.15407173  0.41313828    -0.16600
F149        F  0.43941821  0.09721531  0.33686240    -0.16700
F150        F  0.40394153  0.14593738  0.30149095    -0.14300
C151        C  0.14094645  0.38728054  0.41126581     0.23700
C152        C  0.10687353  0.40124825  0.39367562    -0.24400
C153        C  0.09179649  0.38925616  0.35717764     0.18600
C154        C  0.11033470  0.36400643  0.33873477     0.23700
C155        C  0.14440758  0.35003867  0.35632499    -0.24300
C156        C  0.15948467  0.36203077  0.39282298     0.18600
F157        F  0.19217101  0.34932938  0.41103928    -0.14300
F158        F  0.15648728  0.39787689  0.44653290    -0.16600
F159        F  0.09479374  0.35341011  0.30346772    -0.17100
F160        F  0.05911023  0.40195761  0.33896131    -0.14300
C161        C  0.41564156  0.38318881  0.13424556     0.23700
C162        C  0.39421640  0.40126217  0.10625359    -0.24400
C163        C  0.35400757  0.39339865  0.09719779     0.18600
C164        C  0.33563974  0.36809781  0.11575482     0.23700
C165        C  0.35706482  0.35002451  0.14374686    -0.24300
C166        C  0.39727369  0.35788797  0.15280255     0.18600
F167        F  0.41930094  0.34074944  0.17903340    -0.14300
F168        F  0.45474045  0.38955209  0.14320636    -0.16600
F169        F  0.29654084  0.36173455  0.10679419    -0.16700
F170        F  0.33198022  0.41053716  0.07096696    -0.14300
N171        N  0.45300430  0.46526853  0.92449572    -0.06000
N172        N  0.44697167  0.44251329  0.89880464    -0.58100
N173        N  0.42515142  0.03605063  0.95255659    -0.05700
N174        N  0.39960470  0.05889328  0.94659344    -0.60200
N175        N  0.45314333  0.03601086  0.92448747    -0.05300
N176        N  0.44717019  0.05880854  0.89886418    -0.58100
N177        N  0.42508070  0.46516340  0.95265431    -0.04900
N178        N  0.39957072  0.44224162  0.94675306    -0.60600
C179        C  0.41357903  0.42826658  0.91305291     0.96200
C180        C  0.41367857  0.07297711  0.91300210     0.96000
N181        N  0.45309543  0.03606371  0.57568534    -0.06200
N182        N  0.44709008  0.05879856  0.60142234    -0.58700
N183        N  0.42493393  0.46534426  0.54760030    -0.04300
N184        N  0.39924910  0.44256289  0.55358204    -0.59900
N185        N  0.45312350  0.46521326  0.57551309    -0.06200
N186        N  0.44725180  0.44228030  0.60097191    -0.59000
N187        N  0.42521528  0.03623765  0.54745651    -0.03900
N188        N  0.39978876  0.05919029  0.55331161    -0.60000
Mn189      Mn  0.42375716  0.50070433  0.50006434     1.18400
C190        C  0.41378435  0.07311223  0.58707304     0.98300
C191        C  0.41354643  0.42828779  0.58694415     0.98900
N192        N  0.04802440  0.03599622  0.92448076    -0.06200
N193        N  0.05401707  0.05879842  0.89886393    -0.62500
N194        N  0.07596049  0.46520665  0.95259221    -0.05000
N195        N  0.10152543  0.44237365  0.94664931    -0.63200
N196        N  0.04794564  0.46521532  0.92451163    -0.05700
N197        N  0.05393322  0.44240659  0.89890221    -0.62800
N198        N  0.07602782  0.03604410  0.95257237    -0.04600
N199        N  0.10159391  0.05890058  0.94663410    -0.63500
Mn200      Mn  0.00052718  0.00062050  0.92316244     1.10700
C201        C  0.08752759  0.07298278  0.91302913     0.99500
C202        C  0.08745079  0.42825509  0.91305977     0.99600
N203        N  0.04804198  0.46527846  0.57551089    -0.05700
N204        N  0.05402509  0.44245531  0.60109894    -0.61100
N205        N  0.07620425  0.03604871  0.54751074    -0.05100
N206        N  0.10194458  0.05879244  0.55355429    -0.57800
N207        N  0.04805508  0.03615299  0.57544362    -0.06400
N208        N  0.05399366  0.05904775  0.60095886    -0.60700
N209        N  0.07606658  0.46528141  0.54747558    -0.05400
N210        N  0.10166167  0.44247286  0.55345008    -0.57900
Mn211      Mn  0.00058465  0.00066812  0.57686422     1.20200
Mn212      Mn  0.07739291  0.00064465  0.50003004     1.10100
Cl213      Cl  0.00056225  0.00064576  0.50003201    -0.85800
C214        C  0.08757384  0.42833477  0.58699722     0.96500
C215        C  0.08770818  0.07301750  0.58696268     0.96300
N216        N  0.29815753  0.28607369  0.67448755    -0.06000
N217        N  0.30402929  0.30900662  0.64902874    -0.58100
N218        N  0.32606565  0.21504923  0.70254427    -0.05700
N219        N  0.35149221  0.19209661  0.69668917    -0.60200
N220        N  0.29818552  0.21522321  0.67431545    -0.05300
N221        N  0.30419095  0.19248839  0.64857837    -0.58100
N222        N  0.32634715  0.28594264  0.70240034    -0.04900
N223        N  0.35203204  0.30872393  0.69641854    -0.60600
C224        C  0.33773475  0.32299908  0.66305644     0.96200
C225        C  0.33749669  0.17817473  0.66292767     0.96000
N226        N  0.29813772  0.21527603  0.82551319    -0.06200
N227        N  0.30411095  0.19247842  0.85113652    -0.58700
N228        N  0.32620030  0.28612346  0.79734634    -0.04300
N229        N  0.35171026  0.30904520  0.80324759    -0.59900
N230        N  0.29827668  0.28601835  0.82550498    -0.06200
N231        N  0.30430935  0.30877357  0.85119603    -0.59000
N232        N  0.32612966  0.21523618  0.79744400    -0.03900
N233        N  0.35167634  0.19239357  0.80340719    -0.60000
Mn234      Mn  0.32752386  0.25058257  0.74993632     1.18400
C235        C  0.33760254  0.17830981  0.83699864     0.98300
C236        C  0.33770202  0.32302029  0.83694778     0.98900
N237        N  0.20322593  0.21513395  0.67455708    -0.06200
N238        N  0.19728743  0.19223916  0.64904190    -0.62500
N239        N  0.17521438  0.28600554  0.70252518    -0.05000
N240        N  0.14961947  0.30881416  0.69655085    -0.63200
N241        N  0.20323901  0.28600848  0.67448983    -0.05700
N242        N  0.19725599  0.30883174  0.64890196    -0.62800
N243        N  0.17507669  0.21523819  0.70248996    -0.04600
N244        N  0.14933654  0.19249437  0.69644649    -0.63500
Mn245      Mn  0.25069640  0.25061884  0.67313658     1.10700
C246        C  0.16357295  0.17826932  0.66303806     0.99500
C247        C  0.16370734  0.32295236  0.66300378     0.99600
N248        N  0.20333539  0.28607153  0.82548901    -0.05700
N249        N  0.19734790  0.30888033  0.85109843    -0.61100
N250        N  0.17525314  0.21524278  0.79742827    -0.05100
N251        N  0.14968704  0.19238631  0.80336657    -0.57800
N252        N  0.20325654  0.21529068  0.82551992    -0.06400
N253        N  0.19726386  0.19248850  0.85113677    -0.60700
N254        N  0.17532057  0.28608020  0.79740852    -0.05400
N255        N  0.14975560  0.30891324  0.80335140    -0.57900
Mn256      Mn  0.25075375  0.25066641  0.82683820     1.20200
Mn257      Mn  0.17388799  0.25064228  0.74997064     1.10100
Cl258      Cl  0.25071877  0.25064120  0.74996865    -0.85800
C259        C  0.16383034  0.32303179  0.83694088     0.96500
C260        C  0.16375335  0.17830412  0.83697157     0.96300
C261        C  0.16614715  0.13242268  0.61707233     0.23700
C262        C  0.14419105  0.15130144  0.64366788    -0.24400
C263        C  0.10346003  0.14425370  0.65135290     0.18600
C264        C  0.08513396  0.11886422  0.63292832     0.23700
C265        C  0.10709005  0.09998547  0.60633276    -0.24300
C266        C  0.14782106  0.10703324  0.59864770     0.18600
F267        F  0.17038044  0.08893757  0.57404636    -0.14300
F268        F  0.20570355  0.13807462  0.60945004    -0.16600
F269        F  0.04557753  0.11321234  0.64055057    -0.16700
F270        F  0.08090067  0.16234940  0.67595423    -0.14300
C271        C  0.13984337  0.11488723  0.91216216     0.23700
C272        C  0.10692504  0.10000267  0.89365062    -0.24400
C273        C  0.09296153  0.11109643  0.85624923     0.18600
C274        C  0.11143750  0.13639976  0.83783873     0.23700
C275        C  0.14435585  0.15128431  0.85635022    -0.24300
C276        C  0.15831933  0.14019059  0.89375166     0.18600
F277        F  0.18973325  0.15391346  0.91295034    -0.14300
F278        F  0.15421731  0.10519461  0.94834821    -0.16600
F279        F  0.09706352  0.14609234  0.80165269    -0.16700
F280        F  0.06154753  0.09737366  0.83705058    -0.14300
C281        C  0.14289675  0.38887051  0.59061198     0.23700
C282        C  0.10696577  0.40130398  0.60635798    -0.24400
C283        C  0.08995280  0.38773417  0.64098864     0.18600
C284        C  0.10838453  0.36241668  0.65938918     0.23700
C285        C  0.14431550  0.34998319  0.64364317    -0.24300
C286        C  0.16132849  0.36355301  0.60901250     0.18600
F287        F  0.19595892  0.35245296  0.59272434    -0.14300
F288        F  0.16053595  0.40117655  0.55735958    -0.16600
F289        F  0.09074532  0.35011063  0.69264159    -0.16700
F290        F  0.05532239  0.39883421  0.65727682    -0.14300
C291        C  0.36861750  0.11938256  0.58418602     0.23700
C292        C  0.39445472  0.10008081  0.60643202    -0.24400
C293        C  0.40131778  0.10665064  0.64744503     0.18600
C294        C  0.38266370  0.13190445  0.66581461     0.23700
C295        C  0.35682646  0.15120620  0.64356863    -0.24300
C296        C  0.34996342  0.14463638  0.60255560     0.18600
F297        F  0.32593540  0.16305652  0.57980535    -0.14300
F298        F  0.36208588  0.11432349  0.54430054    -0.16600
F299        F  0.38919533  0.13696350  0.70570008    -0.16700
F300        F  0.42534580  0.08823047  0.67019527    -0.14300
C301        C  0.38419013  0.36860705  0.83469999     0.23700
C302        C  0.35702698  0.34999388  0.85636992    -0.24400
C303        C  0.34869898  0.35731600  0.89689018     0.18600
C304        C  0.36709098  0.38267978  0.91530078     0.23700
C305        C  0.39425416  0.40129289  0.89363085    -0.24300
C306        C  0.40258214  0.39397080  0.85311062     0.18600
F307        F  0.42786305  0.41173858  0.83083047    -0.14300
F308        F  0.39243967  0.36271442  0.79533927    -0.16600
F309        F  0.35884164  0.38857241  0.95466155    -0.16700
F310        F  0.32341801  0.33954827  0.91917037    -0.14300
C311        C  0.34311908  0.14027066  0.89384644     0.23700
C312        C  0.35696208  0.15129180  0.85637162    -0.24400
C313        C  0.38971699  0.13632739  0.83776329     0.18600
C314        C  0.40816197  0.11101628  0.85615428     0.23700
C315        C  0.39431895  0.09999510  0.89362906    -0.24300
C316        C  0.36156402  0.11495950  0.91223737     0.18600
F317        F  0.34733969  0.10534963  0.94850989    -0.14300
F318        F  0.31186295  0.15407168  0.91313829    -0.16600
F319        F  0.43941799  0.09721521  0.83686235    -0.16700
F320        F  0.40394144  0.14593727  0.80149080    -0.14300
C321        C  0.14094649  0.38728057  0.91126578     0.23700
C322        C  0.10687354  0.40124824  0.89367561    -0.24400
C323        C  0.09179651  0.38925616  0.85717761     0.18600
C324        C  0.11033474  0.36400640  0.83873480     0.23700
C325        C  0.14440761  0.35003868  0.85632503    -0.24300
C326        C  0.15948472  0.36203081  0.89282297     0.18600
F327        F  0.19217097  0.34932935  0.91103930    -0.14300
F328        F  0.15648726  0.39787684  0.94653293    -0.16600
F329        F  0.09479395  0.35341006  0.80346770    -0.17100
F330        F  0.05911020  0.40195756  0.83896130    -0.14300
C331        C  0.41564155  0.38318886  0.63424557     0.23700
C332        C  0.39421638  0.40126228  0.60625368    -0.24400
C333        C  0.35400752  0.39339884  0.59719798     0.18600
C334        C  0.33563969  0.36809800  0.61575501     0.23700
C335        C  0.35706480  0.35002461  0.64374695    -0.24300
C336        C  0.39727369  0.35788798  0.65280255     0.18600
F337        F  0.41930093  0.34074939  0.67903336    -0.14300
F338        F  0.45474051  0.38955202  0.64320610    -0.16600
F339        F  0.29654084  0.36173470  0.60679423    -0.16700
F340        F  0.33198023  0.41053729  0.57096701    -0.14300
N341        N  0.45300440  0.96526852  0.42449572    -0.06000
N342        N  0.44697177  0.94251328  0.39880462    -0.58100
N343        N  0.42515140  0.53605067  0.45255664    -0.05700
N344        N  0.39960467  0.55889333  0.44659348    -0.60200
N345        N  0.45314330  0.53601084  0.42448754    -0.05300
N346        N  0.44717014  0.55880851  0.39886420    -0.58100
N347        N  0.42508084  0.96516339  0.45265432    -0.04900
N348        N  0.39957084  0.94224163  0.44675306    -0.60600
C349        C  0.41357912  0.92826659  0.41305290     0.96200
C350        C  0.41367855  0.57297710  0.41300211     0.96000
N351        N  0.45309555  0.53606374  0.07568533    -0.06200
N352        N  0.44709017  0.55879859  0.10142231    -0.58700
N353        N  0.42493379  0.96534428  0.04760030    -0.04300
N354        N  0.39924895  0.94256290  0.05358202    -0.59900
N355        N  0.45312334  0.96521330  0.07551310    -0.06200
N356        N  0.44725164  0.94228032  0.10097190    -0.59000
N357        N  0.42521538  0.53623766  0.04745649    -0.03900
N358        N  0.39978885  0.55919030  0.05331158    -0.60000
Mn359      Mn  0.42375711  0.00070431  0.00006431     1.18400
C360        C  0.41378441  0.57311224  0.08707302     0.98300
C361        C  0.41354628  0.92828779  0.08694412     0.98900
N362        N  0.04802443  0.53599615  0.42448082    -0.06200
N363        N  0.05401717  0.55879829  0.39886388    -0.62500
N364        N  0.07596046  0.96520667  0.45259219    -0.05000
N365        N  0.10152549  0.94237369  0.44664928    -0.63200
N366        N  0.04794564  0.96521531  0.42451164    -0.05700
N367        N  0.05393323  0.94240658  0.39890220    -0.62800
N368        N  0.07602775  0.53604412  0.45257248    -0.04600
N369        N  0.10159387  0.55890059  0.44663421    -0.63500
Mn370      Mn  0.00052727  0.50062041  0.42316246     1.10700
C371        C  0.08752763  0.57298269  0.41302914     0.99500
C372        C  0.08745085  0.92825514  0.41305974     0.99600
N373        N  0.04804198  0.96527850  0.07551092    -0.05700
N374        N  0.05402512  0.94245535  0.10109895    -0.61100
N375        N  0.07620431  0.53604870  0.04751071    -0.05100
N376        N  0.10194452  0.55879250  0.05355416    -0.57800
N377        N  0.04805514  0.53615292  0.07544363    -0.06400
N378        N  0.05399369  0.55904772  0.10095882    -0.60700
N379        N  0.07606658  0.96528140  0.04747557    -0.05400
N380        N  0.10166162  0.94247287  0.05345004    -0.57900
Mn381      Mn  0.00058456  0.50066813  0.07686422     1.20200
Mn382      Mn  0.07739301  0.50064467  0.00003003     1.10100
Cl383      Cl  0.00056236  0.50064578  0.00003201    -0.85800
C384        C  0.08757384  0.92833477  0.08699720     0.96500
C385        C  0.08770814  0.57301751  0.08696263     0.96300
N386        N  0.29815765  0.78607364  0.17448755    -0.06000
N387        N  0.30402936  0.80900660  0.14902874    -0.58100
N388        N  0.32606576  0.71504923  0.20254419    -0.05700
N389        N  0.35149237  0.69209665  0.19668901    -0.60200
N390        N  0.29818560  0.71522319  0.17431543    -0.05300
N391        N  0.30419101  0.69248840  0.14857830    -0.58100
N392        N  0.32634724  0.78594265  0.20240033    -0.04900
N393        N  0.35203211  0.80872396  0.19641854    -0.60600
C394        C  0.33773475  0.82299910  0.16305645     0.96200
C395        C  0.33749677  0.67817477  0.16292752     0.96000
N396        N  0.29813766  0.71527602  0.32551316    -0.06200
N397        N  0.30411087  0.69247839  0.35113650    -0.58700
N398        N  0.32620022  0.78612348  0.29734633    -0.04300
N399        N  0.35171015  0.80904526  0.30324757    -0.59900
N400        N  0.29827666  0.78601835  0.32550500    -0.06200
N401        N  0.30430927  0.80877359  0.35119603    -0.59000
N402        N  0.32612958  0.71523620  0.29744400    -0.03900
N403        N  0.35167632  0.69239362  0.30340723    -0.60000
Mn404      Mn  0.32752379  0.75058257  0.24993631     1.18400
C405        C  0.33760250  0.67830982  0.33699864     0.98300
C406        C  0.33770191  0.82302032  0.33694774     0.98900
N407        N  0.20322599  0.71513391  0.17455705    -0.06200
N408        N  0.19728747  0.69223915  0.14904184    -0.62500
N409        N  0.17521448  0.78600551  0.20252516    -0.05000
N410        N  0.14961946  0.80881409  0.19655075    -0.63200
N411        N  0.20323909  0.78600845  0.17448983    -0.05700
N412        N  0.19725601  0.80883166  0.14890189    -0.62800
N413        N  0.17507676  0.71523820  0.20248991    -0.04600
N414        N  0.14933653  0.69249440  0.19644637    -0.63500
Mn415      Mn  0.25069651  0.75061874  0.17313658     1.10700
C416        C  0.16357292  0.67826937  0.16303795     0.99500
C417        C  0.16370728  0.82295222  0.16300365     0.99600
N418        N  0.20333543  0.78607157  0.32548904    -0.05700
N419        N  0.19734786  0.80888033  0.35109844    -0.61100
N420        N  0.17525323  0.71524273  0.29742823    -0.05100
N421        N  0.14968712  0.69238628  0.30336655    -0.57800
N422        N  0.20325658  0.71529067  0.32551994    -0.06400
N423        N  0.19726387  0.69248851  0.35113680    -0.60700
N424        N  0.17532058  0.78608023  0.29740850    -0.05400
N425        N  0.14975564  0.80891324  0.30335136    -0.57900
Mn426      Mn  0.25075379  0.75066642  0.32683820     1.20200
Mn427      Mn  0.17388808  0.75064227  0.24997062     1.10100
Cl428      Cl  0.25071872  0.75064105  0.24996864    -0.85800
C429        C  0.16383030  0.82303181  0.33694088     0.96500
C430        C  0.16375338  0.67830412  0.33697160     0.96300
C431        C  0.16614698  0.63242282  0.11707210     0.23700
C432        C  0.14419091  0.65130156  0.14366765    -0.24400
C433        C  0.10345989  0.64425379  0.15135273     0.18600
C434        C  0.08513385  0.61886424  0.13292826     0.23700
C435        C  0.10708997  0.59998547  0.10633274    -0.24300
C436        C  0.14782095  0.60703329  0.09864763     0.18600
F437        F  0.17038033  0.58893759  0.07404634    -0.14300
F438        F  0.20570345  0.63807466  0.10945000    -0.16600
F439        F  0.04557742  0.61321235  0.14055055    -0.16700
F440        F  0.08090055  0.66234941  0.17595418    -0.14300
C441        C  0.13984342  0.61488718  0.41216216     0.23700
C442        C  0.10692509  0.60000260  0.39365064    -0.24400
C443        C  0.09296160  0.61109635  0.35624923     0.18600
C444        C  0.11143756  0.63639971  0.33783874     0.23700
C445        C  0.14435589  0.65128428  0.35635023    -0.24300
C446        C  0.15831940  0.64019052  0.39375166     0.18600
F447        F  0.18973340  0.65391328  0.41295032    -0.14300
F448        F  0.15421742  0.60519459  0.44834821    -0.16600
F449        F  0.09706362  0.64609233  0.30165269    -0.16700
F450        F  0.06154769  0.59737348  0.33705056    -0.14300
C451        C  0.14289685  0.88887054  0.09061198     0.23700
C452        C  0.10696586  0.90130402  0.10635793    -0.24400
C453        C  0.08995281  0.88773415  0.14098849     0.18600
C454        C  0.10838438  0.86241654  0.15938891     0.23700
C455        C  0.14431535  0.84998303  0.14364295    -0.24300
C456        C  0.16132845  0.86355294  0.10901244     0.18600
F457        F  0.19595879  0.85245278  0.09272430    -0.14300
F458        F  0.16053609  0.90117658  0.05735960    -0.16600
F459        F  0.09074515  0.85011059  0.19264134    -0.16700
F460        F  0.05532244  0.89883424  0.15727661    -0.14300
C461        C  0.36861733  0.61938246  0.08418597     0.23700
C462        C  0.39445476  0.60008084  0.10643190    -0.24400
C463        C  0.40131796  0.60665074  0.14744486     0.18600
C464        C  0.38266393  0.63190460  0.16581439     0.23700
C465        C  0.35682653  0.65120624  0.14356848    -0.24300
C466        C  0.34996327  0.64463631  0.10255552     0.18600
F467        F  0.32593497  0.66305630  0.07980537    -0.14300
F468        F  0.36208544  0.61432327  0.04430056    -0.16600
F469        F  0.38919578  0.63696376  0.20569980    -0.16700
F470        F  0.42534625  0.58823072  0.17019501    -0.14300
C471        C  0.38419025  0.86860694  0.33470000     0.23700
C472        C  0.35702691  0.84999392  0.35636987    -0.24400
C473        C  0.34869882  0.85731614  0.39689005     0.18600
C474        C  0.36709085  0.88267990  0.41530066     0.23700
C475        C  0.39425416  0.90129293  0.39363079    -0.24300
C476        C  0.40258223  0.89397073  0.35311060     0.18600
F477        F  0.42786324  0.91173841  0.33083046    -0.14300
F478        F  0.39243983  0.86271422  0.29533931    -0.16600
F479        F  0.35884119  0.88857267  0.45466133    -0.16700
F480        F  0.32341777  0.83954848  0.41917017    -0.14300
C481        C  0.34311892  0.64027051  0.39384631     0.23700
C482        C  0.35696213  0.65129185  0.35637167    -0.24400
C483        C  0.38971729  0.63632762  0.33776352     0.18600
C484        C  0.40816223  0.61101646  0.35615445     0.23700
C485        C  0.39431899  0.59999512  0.39362907    -0.24300
C486        C  0.36156386  0.61495937  0.41223722     0.18600
F487        F  0.34733927  0.60534940  0.44850960    -0.14300
F488        F  0.31186281  0.65407148  0.41313822    -0.16600
F489        F  0.43941841  0.59721549  0.33686262    -0.16700
F490        F  0.40394167  0.64593754  0.30149104    -0.14300
C491        C  0.14094640  0.88728052  0.41126583     0.23700
C492        C  0.10687353  0.90124825  0.39367560    -0.24400
C493        C  0.09179648  0.88925617  0.35717758     0.18600
C494        C  0.11033467  0.86400640  0.33873479     0.23700
C495        C  0.14440758  0.85003870  0.35632499    -0.24300
C496        C  0.15948462  0.86203079  0.39282297     0.18600
F497        F  0.19217087  0.84932935  0.41103930    -0.14300
F498        F  0.15648736  0.89787685  0.44653288    -0.16600
F499        F  0.09479383  0.85341007  0.30346771    -0.17100
F500        F  0.05911033  0.90195762  0.33896106    -0.14300
C501        C  0.41564146  0.88318888  0.13424556     0.23700
C502        C  0.39421633  0.90126219  0.10625352    -0.24400
C503        C  0.35400750  0.89339868  0.09719779     0.18600
C504        C  0.33563964  0.86809785  0.11575482     0.23700
C505        C  0.35706477  0.85002458  0.14374689    -0.24300
C506        C  0.39727360  0.85788802  0.15280253     0.18600
F507        F  0.41930081  0.84074943  0.17903338    -0.14300
F508        F  0.45474030  0.88955225  0.14320637    -0.16600
F509        F  0.29654074  0.86173452  0.10679419    -0.16700
F510        F  0.33198024  0.91053716  0.07096688    -0.14300
N511        N  0.45300433  0.96526857  0.92449560    -0.06000
N512        N  0.44697173  0.94251335  0.89880458    -0.58100
N513        N  0.42515137  0.53605065  0.95255662    -0.05700
N514        N  0.39960470  0.55889329  0.94659347    -0.60200
N515        N  0.45314329  0.53601083  0.92448744    -0.05300
N516        N  0.44717008  0.55880846  0.89886414    -0.58100
N517        N  0.42508076  0.96516344  0.95265428    -0.04900
N518        N  0.39957088  0.94224162  0.94675306    -0.60600
C519        C  0.41357913  0.92826656  0.91305292     0.96200
C520        C  0.41367851  0.57297709  0.91300207     0.96000
N521        N  0.45309553  0.53606370  0.57568534    -0.06200
N522        N  0.44709014  0.55879852  0.60142235    -0.58700
N523        N  0.42493382  0.96534423  0.54760030    -0.04300
N524        N  0.39924893  0.94256294  0.55358206    -0.59900
N525        N  0.45312339  0.96521323  0.57551311    -0.06200
N526        N  0.44725165  0.94228028  0.60097189    -0.59000
N527        N  0.42521538  0.53623764  0.54745649    -0.03900
N528        N  0.39978882  0.55919025  0.55331162    -0.60000
Mn529      Mn  0.42375726  0.00070426  0.50006433     1.18400
C530        C  0.41378435  0.57311217  0.58707307     0.98300
C531        C  0.41354626  0.92828779  0.58694416     0.98900
N532        N  0.04802440  0.53599619  0.92448079    -0.06200
N533        N  0.05401708  0.55879837  0.89886389    -0.62500
N534        N  0.07596045  0.96520664  0.95259224    -0.05000
N535        N  0.10152549  0.94237372  0.94664925    -0.63200
N536        N  0.04794559  0.96521532  0.92451163    -0.05700
N537        N  0.05393324  0.94240663  0.89890220    -0.62800
N538        N  0.07602778  0.53604411  0.95257238    -0.04600
N539        N  0.10159393  0.55890055  0.94663408    -0.63500
Mn540      Mn  0.00052726  0.50062046  0.92316244     1.10700
C541        C  0.08752759  0.57298273  0.91302911     0.99500
C542        C  0.08745087  0.92825516  0.91305972     0.99600
N543        N  0.04804207  0.96527846  0.57551093    -0.05700
N544        N  0.05402520  0.94245530  0.60109895    -0.61100
N545        N  0.07620432  0.53604871  0.54751079    -0.05100
N546        N  0.10194455  0.55879254  0.55355425    -0.57800
N547        N  0.04805512  0.53615299  0.57544365    -0.06400
N548        N  0.05399361  0.55904782  0.60095880    -0.60700
N549        N  0.07606664  0.96528138  0.54747556    -0.05400
N550        N  0.10166168  0.94247281  0.55345001    -0.57900
Mn551      Mn  0.00058457  0.50066810  0.57686422     1.20200
Mn552      Mn  0.07739300  0.50064464  0.50003005     1.10100
Cl553      Cl  0.00056236  0.50064572  0.50003202    -0.85800
C554        C  0.08757391  0.92833474  0.58699718     0.96500
C555        C  0.08770812  0.57301758  0.58696263     0.96300
N556        N  0.29815764  0.78607362  0.67448755    -0.06000
N557        N  0.30402937  0.80900656  0.64902874    -0.58100
N558        N  0.32606573  0.71504924  0.70254423    -0.05700
N559        N  0.35149230  0.69209658  0.69668917    -0.60200
N560        N  0.29818563  0.71522320  0.67431545    -0.05300
N561        N  0.30419101  0.69248835  0.64857839    -0.58100
N562        N  0.32634725  0.78594260  0.70240032    -0.04900
N563        N  0.35203212  0.80872390  0.69641854    -0.60600
C564        C  0.33773477  0.82299905  0.66305644     0.96200
C565        C  0.33749673  0.67817469  0.66292771     0.96000
N566        N  0.29813767  0.71527599  0.82551317    -0.06200
N567        N  0.30411084  0.69247834  0.85113648    -0.58700
N568        N  0.32620020  0.78612346  0.79734634    -0.04300
N569        N  0.35171011  0.80904530  0.80324755    -0.59900
N570        N  0.29827670  0.78601829  0.82550501    -0.06200
N571        N  0.30430927  0.80877354  0.85119608    -0.59000
N572        N  0.32612957  0.71523620  0.79744403    -0.03900
N573        N  0.35167632  0.69239359  0.80340723    -0.60000
Mn574      Mn  0.32752378  0.75058255  0.74993632     1.18400
C575        C  0.33760248  0.67830978  0.83699860     0.98300
C576        C  0.33770187  0.82302031  0.83694775     0.98900
N577        N  0.20322596  0.71513394  0.67455707    -0.06200
N578        N  0.19728738  0.69223922  0.64904183    -0.62500
N579        N  0.17521444  0.78600547  0.70252510    -0.05000
N580        N  0.14961943  0.80881407  0.69655073    -0.63200
N581        N  0.20323908  0.78600847  0.67448982    -0.05700
N582        N  0.19725604  0.80883174  0.64890193    -0.62800
N583        N  0.17507680  0.71523816  0.70249001    -0.04600
N584        N  0.14933659  0.69249435  0.69644652    -0.63500
Mn585      Mn  0.25069649  0.75061880  0.67313658     1.10700
C586        C  0.16357289  0.67826939  0.66303800     0.99500
C587        C  0.16370732  0.82295227  0.66300369     0.99600
N588        N  0.20333542  0.78607149  0.82548904    -0.05700
N589        N  0.19734785  0.80888026  0.85109845    -0.61100
N590        N  0.17525328  0.71524274  0.79742822    -0.05100
N591        N  0.14968714  0.69238631  0.80336657    -0.57800
N592        N  0.20325664  0.71529066  0.82551991    -0.06400
N593        N  0.19726388  0.69248857  0.85113683    -0.60700
N594        N  0.17532056  0.78608016  0.79740850    -0.05400
N595        N  0.14975562  0.80891317  0.80335136    -0.57900
Mn596      Mn  0.25075380  0.75066637  0.82683820     1.20200
Mn597      Mn  0.17388808  0.75064224  0.74997062     1.10100
Cl598      Cl  0.25071871  0.75064115  0.74996864    -0.85800
C599        C  0.16383027  0.82303174  0.83694088     0.96500
C600        C  0.16375335  0.67830418  0.83697164     0.96300
C601        C  0.16614709  0.63242271  0.61707231     0.23700
C602        C  0.14419099  0.65130146  0.64366785    -0.24400
C603        C  0.10345994  0.64425369  0.65135285     0.18600
C604        C  0.08513388  0.61886423  0.63292821     0.23700
C605        C  0.10709004  0.59998548  0.60633275    -0.24300
C606        C  0.14782106  0.60703323  0.59864771     0.18600
F607        F  0.17038051  0.58893755  0.57404641    -0.14300
F608        F  0.20570349  0.63807462  0.60945004    -0.16600
F609        F  0.04557740  0.61321233  0.64055029    -0.16700
F610        F  0.08090048  0.66234941  0.67595401    -0.14300
C611        C  0.13984343  0.61488717  0.91216210     0.23700
C612        C  0.10692509  0.60000261  0.89365057    -0.24400
C613        C  0.09296155  0.61109637  0.85624920     0.18600
C614        C  0.11143753  0.63639973  0.83783874     0.23700
C615        C  0.14435590  0.65128430  0.85635022    -0.24300
C616        C  0.15831942  0.64019053  0.89375162     0.18600
F617        F  0.18973335  0.65391339  0.91295032    -0.14300
F618        F  0.15421740  0.60519456  0.94834815    -0.16600
F619        F  0.09706361  0.64609229  0.80165267    -0.16700
F620        F  0.06154745  0.59737363  0.83705061    -0.14300
C621        C  0.14289687  0.88887055  0.59061199     0.23700
C622        C  0.10696587  0.90130400  0.60635793    -0.24400
C623        C  0.08995284  0.88773412  0.64098849     0.18600
C624        C  0.10838453  0.86241660  0.65938899     0.23700
C625        C  0.14431543  0.84998310  0.64364299    -0.24300
C626        C  0.16132845  0.86355297  0.60901243     0.18600
F627        F  0.19595882  0.85245289  0.59272429    -0.14300
F628        F  0.16053608  0.90117654  0.55735957    -0.16600
F629        F  0.09074539  0.85011056  0.69264137    -0.16700
F630        F  0.05532242  0.89883416  0.65727661    -0.14300
C631        C  0.36861753  0.61938253  0.58418601     0.23700
C632        C  0.39445466  0.60008073  0.60643203    -0.24400
C633        C  0.40131770  0.60665053  0.64744505     0.18600
C634        C  0.38266366  0.63190437  0.66581462     0.23700
C635        C  0.35682650  0.65120616  0.64356863    -0.24300
C636        C  0.34996348  0.64463637  0.60255559     0.18600
F637        F  0.32593529  0.66305644  0.57980538    -0.14300
F638        F  0.36208575  0.61432343  0.54430055    -0.16600
F639        F  0.38919544  0.63696346  0.70570007    -0.16700
F640        F  0.42534589  0.58823045  0.67019524    -0.14300
C641        C  0.38418997  0.86860708  0.83469996     0.23700
C642        C  0.35702682  0.84999395  0.85636988    -0.24400
C643        C  0.34869895  0.85731607  0.89689012     0.18600
C644        C  0.36709095  0.88267982  0.91530070     0.23700
C645        C  0.39425414  0.90129294  0.89363081    -0.24300
C646        C  0.40258198  0.89397085  0.85311056     0.18600
F647        F  0.42786293  0.91173857  0.83083044    -0.14300
F648        F  0.39243952  0.86271438  0.79533927    -0.16600
F649        F  0.35884148  0.88857240  0.95466141    -0.16700
F650        F  0.32341808  0.83954838  0.91917040    -0.14300
C651        C  0.34311890  0.64027053  0.89384628     0.23700
C652        C  0.35696205  0.65129178  0.85637160    -0.24400
C653        C  0.38971714  0.63632749  0.83776340     0.18600
C654        C  0.40816216  0.61101638  0.85615438     0.23700
C655        C  0.39431897  0.59999510  0.89362905    -0.24300
C656        C  0.36156391  0.61495943  0.91223722     0.18600
F657        F  0.34733951  0.60534955  0.94850968    -0.14300
F658        F  0.31186285  0.65407159  0.91313822    -0.16600
F659        F  0.43941839  0.59721542  0.83686262    -0.16700
F660        F  0.40394163  0.64593747  0.80149100    -0.14300
C661        C  0.14094656  0.88728058  0.91126573     0.23700
C662        C  0.10687360  0.90124830  0.89367556    -0.24400
C663        C  0.09179649  0.88925618  0.85717759     0.18600
C664        C  0.11033467  0.86400642  0.83873476     0.23700
C665        C  0.14440758  0.85003867  0.85632497    -0.24300
C666        C  0.15948471  0.86203080  0.89282291     0.18600
F667        F  0.19217089  0.84932926  0.91103931    -0.14300
F668        F  0.15648738  0.89787679  0.94653291    -0.16600
F669        F  0.09479382  0.85341017  0.80346764    -0.17100
F670        F  0.05911036  0.90195772  0.83896107    -0.14300
C671        C  0.41564143  0.88318891  0.63424555     0.23700
C672        C  0.39421625  0.90126227  0.60625364    -0.24400
C673        C  0.35400744  0.89339878  0.59719794     0.18600
C674        C  0.33563961  0.86809790  0.61575490     0.23700
C675        C  0.35706478  0.85002457  0.64374692    -0.24300
C676        C  0.39727362  0.85788806  0.65280257     0.18600
F677        F  0.41930101  0.84074955  0.67903337    -0.14300
F678        F  0.45474034  0.88955217  0.64320611    -0.16600
F679        F  0.29654071  0.86173464  0.60679421    -0.16700
F680        F  0.33198025  0.91053726  0.57096696    -0.14300
N681        N  0.95300436  0.46526855  0.42449572    -0.06000
N682        N  0.94697172  0.44251331  0.39880463    -0.58100
N683        N  0.92515135  0.03605063  0.45255663    -0.05700
N684        N  0.89960464  0.05889332  0.44659350    -0.60200
N685        N  0.95314321  0.03601079  0.42448755    -0.05300
N686        N  0.94717009  0.05880848  0.39886419    -0.58100
N687        N  0.92508079  0.46516346  0.45265430    -0.04900
N688        N  0.89957079  0.44224169  0.44675308    -0.60600
C689        C  0.91357907  0.42826662  0.41305294     0.96200
C690        C  0.91367852  0.07297707  0.41300209     0.96000
N691        N  0.95309552  0.03606374  0.07568532    -0.06200
N692        N  0.94709017  0.05879856  0.10142231    -0.58700
N693        N  0.92493383  0.46534419  0.04760026    -0.04300
N694        N  0.89924906  0.44256284  0.05358198    -0.59900
N695        N  0.95312337  0.46521327  0.07551316    -0.06200
N696        N  0.94725162  0.44228033  0.10097195    -0.59000
N697        N  0.92521537  0.03623768  0.04745646    -0.03900
N698        N  0.89978890  0.05919036  0.05331153    -0.60000
Mn699      Mn  0.92375725  0.50070428  0.00006432     1.18400
C700        C  0.91378449  0.07311230  0.08707295     0.98300
C701        C  0.91354631  0.42828774  0.08694416     0.98900
N702        N  0.54802439  0.03599620  0.42448082    -0.06200
N703        N  0.55401713  0.05879834  0.39886388    -0.62500
N704        N  0.57596048  0.46520669  0.45259220    -0.05000
N705        N  0.60152550  0.44237371  0.44664927    -0.63200
N706        N  0.54794565  0.46521533  0.42451165    -0.05700
N707        N  0.55393323  0.44240661  0.39890221    -0.62800
N708        N  0.57602771  0.03604417  0.45257248    -0.04600
N709        N  0.60159383  0.05890064  0.44663421    -0.63500
Mn710      Mn  0.50052725  0.00062042  0.42316246     1.10700
C711        C  0.58752759  0.07298275  0.41302914     0.99500
C712        C  0.58745084  0.42825516  0.41305975     0.99600
N713        N  0.54804203  0.46527851  0.07551093    -0.05700
N714        N  0.55402515  0.44245531  0.10109892    -0.61100
N715        N  0.57620429  0.03604871  0.04751072    -0.05100
N716        N  0.60194448  0.05879253  0.05355415    -0.57800
N717        N  0.54805511  0.03615296  0.07544363    -0.06400
N718        N  0.55399365  0.05904777  0.10095880    -0.60700
N719        N  0.57606661  0.46528147  0.04747561    -0.05400
N720        N  0.60166169  0.44247292  0.05345003    -0.57900
Mn721      Mn  0.50058454  0.00066816  0.07686420     1.20200
Mn722      Mn  0.57739297  0.00064460  0.00003003     1.10100
Cl723      Cl  0.50056230  0.00064582  0.00003201    -0.85800
C724        C  0.58757390  0.42833481  0.08699718     0.96500
C725        C  0.58770810  0.07301756  0.08696261     0.96300
N726        N  0.79815760  0.28607364  0.17448757    -0.06000
N727        N  0.80402936  0.30900651  0.14902870    -0.58100
N728        N  0.82606574  0.21504924  0.20254421    -0.05700
N729        N  0.85149239  0.19209671  0.19668900    -0.60200
N730        N  0.79818555  0.21522315  0.17431543    -0.05300
N731        N  0.80419104  0.19248841  0.14857831    -0.58100
N732        N  0.82634719  0.28594267  0.20240038    -0.04900
N733        N  0.85203206  0.30872396  0.19641855    -0.60600
C734        C  0.83773476  0.32299903  0.16305640     0.96200
C735        C  0.83749687  0.17817481  0.16292751     0.96000
N736        N  0.79813771  0.21527606  0.32551318    -0.06200
N737        N  0.80411101  0.19247848  0.35113656    -0.58700
N738        N  0.82620020  0.28612346  0.29734633    -0.04300
N739        N  0.85171011  0.30904527  0.30324757    -0.59900
N740        N  0.79827664  0.28601834  0.32550502    -0.06200
N741        N  0.80430925  0.30877354  0.35119606    -0.59000
N742        N  0.82612958  0.21523622  0.29744397    -0.03900
N743        N  0.85167636  0.19239367  0.30340719    -0.60000
Mn744      Mn  0.82752375  0.25058260  0.24993631     1.18400
C745        C  0.83760262  0.17830990  0.33699866     0.98300
C746        C  0.83770186  0.32302032  0.33694775     0.98900
N747        N  0.70322598  0.21513391  0.17455703    -0.06200
N748        N  0.69728742  0.19223920  0.14904176    -0.62500
N749        N  0.67521443  0.28600544  0.20252519    -0.05000
N750        N  0.64961944  0.30881408  0.19655081    -0.63200
N751        N  0.70323902  0.28600839  0.17448986    -0.05700
N752        N  0.69725599  0.30883163  0.14890193    -0.62800
N753        N  0.67507675  0.21523812  0.20248993    -0.04600
N754        N  0.64933650  0.19249439  0.19644631    -0.63500
Mn755      Mn  0.75069647  0.25061874  0.17313660     1.10700
C756        C  0.66357286  0.17826942  0.16303782     0.99500
C757        C  0.66370729  0.32295222  0.16300369     0.99600
N758        N  0.70333541  0.28607152  0.32548906    -0.05700
N759        N  0.69734782  0.30888026  0.35109843    -0.61100
N760        N  0.67525327  0.21524266  0.29742820    -0.05100
N761        N  0.64968713  0.19238623  0.30336655    -0.57800
N762        N  0.70325663  0.21529061  0.32551991    -0.06400
N763        N  0.69726388  0.19248851  0.35113682    -0.60700
N764        N  0.67532050  0.28608013  0.29740851    -0.05400
N765        N  0.64975558  0.30891314  0.30335139    -0.57900
Mn766      Mn  0.75075378  0.25066643  0.32683820     1.20200
Mn767      Mn  0.67388805  0.25064215  0.24997064     1.10100
Cl768      Cl  0.75071869  0.25064108  0.24996864    -0.85800
C769        C  0.66383026  0.32303177  0.33694087     0.96500
C770        C  0.66375335  0.17830412  0.33697163     0.96300
C771        C  0.66614696  0.13242280  0.11707214     0.23700
C772        C  0.64419087  0.15130159  0.14366761    -0.24400
C773        C  0.60345986  0.14425383  0.15135271     0.18600
C774        C  0.58513381  0.11886429  0.13292825     0.23700
C775        C  0.60708993  0.09998551  0.10633273    -0.24300
C776        C  0.64782091  0.10703330  0.09864764     0.18600
F777        F  0.67038029  0.08893762  0.07404633    -0.14300
F778        F  0.70570341  0.13807469  0.10944999    -0.16600
F779        F  0.54557738  0.11321240  0.14055055    -0.16700
F780        F  0.58090053  0.16234946  0.17595417    -0.14300
C781        C  0.63984338  0.11488723  0.41216217     0.23700
C782        C  0.60692506  0.10000265  0.39365065    -0.24400
C783        C  0.59296156  0.11109639  0.35624926     0.18600
C784        C  0.61143752  0.13639972  0.33783876     0.23700
C785        C  0.64435585  0.15128431  0.35635026    -0.24300
C786        C  0.65831936  0.14019056  0.39375167     0.18600
F787        F  0.68973337  0.15391334  0.41295032    -0.14300
F788        F  0.65421738  0.10519464  0.44834821    -0.16600
F789        F  0.59706361  0.14609220  0.30165265    -0.16700
F790        F  0.56154766  0.09737352  0.33705057    -0.14300
C791        C  0.64289688  0.38887056  0.09061196     0.23700
C792        C  0.60696589  0.40130404  0.10635792    -0.24400
C793        C  0.58995285  0.38773419  0.14098848     0.18600
C794        C  0.60838449  0.36241661  0.15938893     0.23700
C795        C  0.64431542  0.34998306  0.14364294    -0.24300
C796        C  0.66132852  0.36355296  0.10901242     0.18600
F797        F  0.69595895  0.35245286  0.09272434    -0.14300
F798        F  0.66053607  0.40117663  0.05735959    -0.16600
F799        F  0.59074538  0.35011065  0.19264138    -0.16700
F800        F  0.55532243  0.39883427  0.15727661    -0.14300
C801        C  0.86861751  0.11938259  0.08418596     0.23700
C802        C  0.89445484  0.10008088  0.10643191    -0.24400
C803        C  0.90131792  0.10665070  0.14744493     0.18600
C804        C  0.88266388  0.13190452  0.16581451     0.23700
C805        C  0.85682660  0.15120626  0.14356853    -0.24300
C806        C  0.84996347  0.14463642  0.10255555     0.18600
F807        F  0.82593529  0.16305654  0.07980537    -0.14300
F808        F  0.86208573  0.11432352  0.04430052    -0.16600
F809        F  0.88919569  0.13696359  0.20569996    -0.16700
F810        F  0.92534592  0.08823055  0.17019522    -0.14300
C811        C  0.88419037  0.36860685  0.33470019     0.23700
C812        C  0.85702686  0.34999391  0.35636994    -0.24400
C813        C  0.84869869  0.35731616  0.39689008     0.18600
C814        C  0.86709074  0.38267990  0.41530073     0.23700
C815        C  0.89425416  0.40129289  0.39363092    -0.24300
C816        C  0.90258235  0.39397062  0.35311081     0.18600
F817        F  0.92786350  0.41173823  0.33083075    -0.14300
F818        F  0.89244013  0.36271406  0.29533957    -0.16600
F819        F  0.85884088  0.38857274  0.45466133    -0.16700
F820        F  0.82341748  0.33954857  0.41917013    -0.14300
C821        C  0.84311928  0.14027079  0.39384654     0.23700
C822        C  0.85696215  0.15129184  0.35637163    -0.24400
C823        C  0.88971687  0.13632727  0.33776317     0.18600
C824        C  0.90816189  0.11101616  0.35615416     0.23700
C825        C  0.89431903  0.09999514  0.39362908    -0.24300
C826        C  0.86156429  0.11495968  0.41223753     0.18600
F827        F  0.84734014  0.10534993  0.44851018    -0.14300
F828        F  0.81186338  0.15407197  0.41313857    -0.16600
F829        F  0.93941770  0.09721490  0.33686206    -0.16700
F830        F  0.90394096  0.14593691  0.30149046    -0.14300
C831        C  0.64094651  0.38728060  0.41126578     0.23700
C832        C  0.60687355  0.40124828  0.39367562    -0.24400
C833        C  0.59179644  0.38925614  0.35717769     0.18600
C834        C  0.61033465  0.36400641  0.33873481     0.23700
C835        C  0.64440761  0.35003871  0.35632496    -0.24300
C836        C  0.65948472  0.36203087  0.39282291     0.18600
F837        F  0.69217090  0.34932937  0.41103931    -0.14300
F838        F  0.65648737  0.39787690  0.44653289    -0.16600
F839        F  0.59479380  0.35341011  0.30346771    -0.17100
F840        F  0.55911027  0.40195764  0.33896129    -0.14300
C841        C  0.91564142  0.38318882  0.13424558     0.23700
C842        C  0.89421629  0.40126218  0.10625361    -0.24400
C843        C  0.85400748  0.39339865  0.09719782     0.18600
C844        C  0.83563961  0.36809781  0.11575483     0.23700
C845        C  0.85706476  0.35002450  0.14374686    -0.24300
C846        C  0.89727360  0.35788797  0.15280255     0.18600
F847        F  0.91930097  0.34074945  0.17903336    -0.14300
F848        F  0.95474028  0.38955210  0.14320636    -0.16600
F849        F  0.79654069  0.36173455  0.10679420    -0.16700
F850        F  0.83198023  0.41053717  0.07096692    -0.14300
N851        N  0.95300435  0.46526855  0.92449570    -0.06000
N852        N  0.94697174  0.44251328  0.89880464    -0.58100
N853        N  0.92515144  0.03605072  0.95255665    -0.05700
N854        N  0.89960470  0.05889335  0.94659350    -0.60200
N855        N  0.95314327  0.03601088  0.92448745    -0.05300
N856        N  0.94717006  0.05880851  0.89886411    -0.58100
N857        N  0.92508078  0.46516345  0.95265428    -0.04900
N858        N  0.89957079  0.44224165  0.94675306    -0.60600
C859        C  0.91357909  0.42826659  0.91305293     0.96200
C860        C  0.91367850  0.07297711  0.91300208     0.96000
N861        N  0.95309551  0.03606372  0.57568533    -0.06200
N862        N  0.94709013  0.05879857  0.60142233    -0.58700
N863        N  0.92493383  0.46534426  0.54760029    -0.04300
N864        N  0.89924904  0.44256287  0.55358199    -0.59900
N865        N  0.95312338  0.46521328  0.57551313    -0.06200
N866        N  0.94725166  0.44228034  0.60097193    -0.59000
N867        N  0.92521534  0.03623764  0.54745650    -0.03900
N868        N  0.89978880  0.05919029  0.55331161    -0.60000
Mn869      Mn  0.92375725  0.50070435  0.50006432     1.18400
C870        C  0.91378435  0.07311222  0.58707304     0.98300
C871        C  0.91354632  0.42828779  0.58694415     0.98900
N872        N  0.54802436  0.03599623  0.92448080    -0.06200
N873        N  0.55401705  0.05879843  0.89886391    -0.62500
N874        N  0.57596043  0.46520665  0.95259221    -0.05000
N875        N  0.60152546  0.44237366  0.94664929    -0.63200
N876        N  0.54794563  0.46521530  0.92451164    -0.05700
N877        N  0.55393321  0.44240656  0.89890221    -0.62800
N878        N  0.57602776  0.03604411  0.95257238    -0.04600
N879        N  0.60159389  0.05890058  0.94663410    -0.63500
Mn880      Mn  0.50052723  0.00062050  0.92316244     1.10700
C881        C  0.58752756  0.07298278  0.91302913     0.99500
C882        C  0.58745081  0.42825511  0.91305977     0.99600
N883        N  0.54804208  0.46527847  0.57551088    -0.05700
N884        N  0.55402520  0.44245532  0.60109893    -0.61100
N885        N  0.57620427  0.03604869  0.54751076    -0.05100
N886        N  0.60194455  0.05879245  0.55355428    -0.57800
N887        N  0.54805505  0.03615298  0.57544364    -0.06400
N888        N  0.55399362  0.05904775  0.60095883    -0.60700
N889        N  0.57606669  0.46528142  0.54747558    -0.05400
N890        N  0.60166177  0.44247287  0.55345008    -0.57900
Mn891      Mn  0.50058454  0.00066811  0.57686422     1.20200
Mn892      Mn  0.57739296  0.00064466  0.50003004     1.10100
Cl893      Cl  0.50056233  0.00064576  0.50003202    -0.85800
C894        C  0.58757394  0.42833478  0.58699720     0.96500
C895        C  0.58770816  0.07301749  0.58696268     0.96300
N896        N  0.79815762  0.28607366  0.67448756    -0.06000
N897        N  0.80402932  0.30900661  0.64902875    -0.58100
N898        N  0.82606576  0.21504924  0.70254423    -0.05700
N899        N  0.85149236  0.19209664  0.69668907    -0.60200
N900        N  0.79818560  0.21522320  0.67431546    -0.05300
N901        N  0.80419101  0.19248839  0.64857836    -0.58100
N902        N  0.82634725  0.28594264  0.70240032    -0.04900
N903        N  0.85203210  0.30872395  0.69641853    -0.60600
C904        C  0.83773473  0.32299910  0.66305644     0.96200
C905        C  0.83749679  0.17817475  0.66292762     0.96000
N906        N  0.79813770  0.21527599  0.82551316    -0.06200
N907        N  0.80411099  0.19247841  0.85113655    -0.58700
N908        N  0.82620028  0.28612346  0.79734634    -0.04300
N909        N  0.85171026  0.30904522  0.80324759    -0.59900
N910        N  0.79827671  0.28601833  0.82550497    -0.06200
N911        N  0.80430935  0.30877356  0.85119605    -0.59000
N912        N  0.82612961  0.21523616  0.79744398    -0.03900
N913        N  0.85167636  0.19239359  0.80340720    -0.60000
Mn914      Mn  0.82752391  0.25058256  0.74993631     1.18400
C915        C  0.83760260  0.17830983  0.83699866     0.98300
C916        C  0.83770198  0.32302028  0.83694775     0.98900
N917        N  0.70322594  0.21513393  0.67455705    -0.06200
N918        N  0.69728744  0.19223915  0.64904185    -0.62500
N919        N  0.67521446  0.28600553  0.70252509    -0.05000
N920        N  0.64961956  0.30881417  0.69655078    -0.63200
N921        N  0.70323910  0.28600848  0.67448978    -0.05700
N922        N  0.69725611  0.30883177  0.64890191    -0.62800
N923        N  0.67507672  0.21523818  0.70248992    -0.04600
N924        N  0.64933649  0.19249437  0.69644637    -0.63500
Mn925      Mn  0.75069647  0.25061883  0.67313658     1.10700
C926        C  0.66357290  0.17826935  0.66303795     0.99500
C927        C  0.66370745  0.32295237  0.66300373     0.99600
N928        N  0.70333543  0.28607154  0.82548902    -0.05700
N929        N  0.69734794  0.30888032  0.85109840    -0.61100
N930        N  0.67525324  0.21524278  0.79742827    -0.05100
N931        N  0.64968714  0.19238631  0.80336657    -0.57800
N932        N  0.70325663  0.21529068  0.82551992    -0.06400
N933        N  0.69726395  0.19248850  0.85113677    -0.60700
N934        N  0.67532054  0.28608021  0.79740851    -0.05400
N935        N  0.64975561  0.30891322  0.80335141    -0.57900
Mn936      Mn  0.75075379  0.25066641  0.82683820     1.20200
Mn937      Mn  0.67388805  0.25064228  0.74997062     1.10100
Cl938      Cl  0.75071872  0.25064120  0.74996864    -0.85800
C939        C  0.66383033  0.32303179  0.83694090     0.96500
C940        C  0.66375345  0.17830411  0.83697156     0.96300
C941        C  0.66614704  0.13242278  0.61707213     0.23700
C942        C  0.64419092  0.15130152  0.64366765    -0.24400
C943        C  0.60345988  0.14425374  0.65135267     0.18600
C944        C  0.58513387  0.11886421  0.63292819     0.23700
C945        C  0.60709003  0.09998543  0.60633275    -0.24300
C946        C  0.64782106  0.10703324  0.59864765     0.18600
F947        F  0.67038053  0.08893757  0.57404637    -0.14300
F948        F  0.70570349  0.13807466  0.60945000    -0.16600
F949        F  0.54557738  0.11321235  0.64055028    -0.16700
F950        F  0.58090047  0.16234942  0.67595394    -0.14300
C951        C  0.63984336  0.11488726  0.91216219     0.23700
C952        C  0.60692507  0.10000267  0.89365063    -0.24400
C953        C  0.59296158  0.11109643  0.85624923     0.18600
C954        C  0.61143752  0.13639979  0.83783877     0.23700
C955        C  0.64435590  0.15128431  0.85635022    -0.24300
C956        C  0.65831939  0.14019058  0.89375166     0.18600
F957        F  0.68973333  0.15391344  0.91295033    -0.14300
F958        F  0.65421738  0.10519460  0.94834820    -0.16600
F959        F  0.59706359  0.14609234  0.80165268    -0.16700
F960        F  0.56154761  0.09737364  0.83705056    -0.14300
C961        C  0.64289683  0.38887052  0.59061194     0.23700
C962        C  0.60696586  0.40130400  0.60635792    -0.24400
C963        C  0.58995283  0.38773415  0.64098849     0.18600
C964        C  0.60838456  0.36241664  0.65938899     0.23700
C965        C  0.64431554  0.34998317  0.64364303    -0.24300
C966        C  0.66132852  0.36355299  0.60901240     0.18600
F967        F  0.69595899  0.35245297  0.59272433    -0.14300
F968        F  0.66053606  0.40117657  0.55735958    -0.16600
F969        F  0.59074539  0.35011060  0.69264135    -0.16700
F970        F  0.55532241  0.39883420  0.65727660    -0.14300
C971        C  0.86861758  0.11938265  0.58418599     0.23700
C972        C  0.89445470  0.10008080  0.60643200    -0.24400
C973        C  0.90131761  0.10665050  0.64744504     0.18600
C974        C  0.88266359  0.13190434  0.66581462     0.23700
C975        C  0.85682652  0.15120621  0.64356860    -0.24300
C976        C  0.84996356  0.14463650  0.60255557     0.18600
F977        F  0.82593555  0.16305672  0.57980536    -0.14300
F978        F  0.86208600  0.11432369  0.54430051    -0.16600
F979        F  0.88919512  0.13696329  0.70570011    -0.16700
F980        F  0.92534558  0.08823026  0.67019527    -0.14300
C981        C  0.88419022  0.36860693  0.83470000     0.23700
C982        C  0.85702695  0.34999389  0.85636987    -0.24400
C983        C  0.84869889  0.35731607  0.89689005     0.18600
C984        C  0.86709084  0.38267984  0.91530067     0.23700
C985        C  0.89425411  0.40129292  0.89363081    -0.24300
C986        C  0.90258220  0.39397072  0.85311061     0.18600
F987        F  0.92786319  0.41173839  0.83083046    -0.14300
F988        F  0.89243979  0.36271420  0.79533930    -0.16600
F989        F  0.85884117  0.38857247  0.95466136    -0.16700
F990        F  0.82341776  0.33954847  0.91917015    -0.14300
C991        C  0.84311929  0.14027079  0.89384657     0.23700
C992        C  0.85696211  0.15129180  0.85637162    -0.24400
C993        C  0.88971682  0.13632721  0.83776317     0.18600
C994        C  0.90816180  0.11101612  0.85615416     0.23700
C995        C  0.89431897  0.09999513  0.89362910    -0.24300
C996        C  0.86156430  0.11495972  0.91223756     0.18600
F997        F  0.84734014  0.10535006  0.94851023    -0.14300
F998        F  0.81186366  0.15407213  0.91313883    -0.16600
F999        F  0.93941748  0.09721478  0.83686201    -0.16700
F1000       F  0.90394095  0.14593684  0.80149046    -0.14300
C1001       C  0.64094658  0.38728058  0.91126577     0.23700
C1002       C  0.60687360  0.40124826  0.89367559    -0.24400
C1003       C  0.59179659  0.38925619  0.85717758     0.18600
C1004       C  0.61033477  0.36400645  0.83873479     0.23700
C1005       C  0.64440766  0.35003869  0.85632502    -0.24300
C1006       C  0.65948480  0.36203082  0.89282295     0.18600
F1007       F  0.69217107  0.34932935  0.91103929    -0.14300
F1008       F  0.65648736  0.39787685  0.94653293    -0.16600
F1009       F  0.59479385  0.35341022  0.80346770    -0.17100
F1010       F  0.55911035  0.40195757  0.83896109    -0.14300
C1011       C  0.91564149  0.38318888  0.63424554     0.23700
C1012       C  0.89421631  0.40126227  0.60625364    -0.24400
C1013       C  0.85400746  0.39339882  0.59719795     0.18600
C1014       C  0.83563961  0.36809796  0.61575491     0.23700
C1015       C  0.85706477  0.35002460  0.64374691    -0.24300
C1016       C  0.89727366  0.35788800  0.65280254     0.18600
F1017       F  0.91930097  0.34074941  0.67903333    -0.14300
F1018       F  0.95474038  0.38955221  0.64320614    -0.16600
F1019       F  0.79654070  0.36173471  0.60679421    -0.16700
F1020       F  0.83198026  0.41053731  0.57096698    -0.14300
N1021       N  0.95300433  0.96526853  0.42449575    -0.06000
N1022       N  0.94697171  0.94251329  0.39880465    -0.58100
N1023       N  0.92515149  0.53605068  0.45255664    -0.05700
N1024       N  0.89960476  0.55889333  0.44659349    -0.60200
N1025       N  0.95314337  0.53601085  0.42448753    -0.05300
N1026       N  0.94717021  0.55880852  0.39886420    -0.58100
N1027       N  0.92508071  0.96516341  0.45265431    -0.04900
N1028       N  0.89957074  0.94224166  0.44675306    -0.60600
C1029       C  0.91357908  0.92826658  0.41305293     0.96200
C1030       C  0.91367862  0.57297711  0.41300211     0.96000
N1031       N  0.95309543  0.53606372  0.07568536    -0.06200
N1032       N  0.94709006  0.55879859  0.10142230    -0.58700
N1033       N  0.92493390  0.96534428  0.04760029    -0.04300
N1034       N  0.89924906  0.94256290  0.05358202    -0.59900
N1035       N  0.95312345  0.96521330  0.07551310    -0.06200
N1036       N  0.94725175  0.94228032  0.10097190    -0.59000
N1037       N  0.92521530  0.53623765  0.04745648    -0.03900
N1038       N  0.89978884  0.55919034  0.05331149    -0.60000
Mn1039     Mn  0.92375716  0.00070433  0.00006432     1.18400
C1040       C  0.91378439  0.57311229  0.08707293     0.98300
C1041       C  0.91354639  0.92828780  0.08694411     0.98900
N1042       N  0.54802443  0.53599619  0.42448079    -0.06200
N1043       N  0.55401705  0.55879841  0.39886396    -0.62500
N1044       N  0.57596046  0.96520666  0.45259219    -0.05000
N1045       N  0.60152541  0.94237367  0.44664931    -0.63200
N1046       N  0.54794561  0.96521531  0.42451162    -0.05700
N1047       N  0.55393321  0.94240659  0.39890220    -0.62800
N1048       N  0.57602781  0.53604414  0.45257244    -0.04600
N1049       N  0.60159384  0.55890066  0.44663420    -0.63500
Mn1050     Mn  0.50052728  0.50062041  0.42316246     1.10700
C1051       C  0.58752752  0.57298281  0.41302919     0.99500
C1052       C  0.58745078  0.92825511  0.41305974     0.99600
N1053       N  0.54804194  0.96527850  0.07551089    -0.05700
N1054       N  0.55402505  0.94245534  0.10109894    -0.61100
N1055       N  0.57620420  0.53604871  0.04751069    -0.05100
N1056       N  0.60194448  0.55879248  0.05355415    -0.57800
N1057       N  0.54805509  0.53615294  0.07544361    -0.06400
N1058       N  0.55399367  0.55904773  0.10095884    -0.60700
N1059       N  0.57606654  0.96528142  0.04747558    -0.05400
N1060       N  0.60166162  0.94247288  0.05345008    -0.57900
Mn1061     Mn  0.50058462  0.50066812  0.07686422     1.20200
Mn1062     Mn  0.57739287  0.50064467  0.00003003     1.10100
Cl1063     Cl  0.50056224  0.50064578  0.00003201    -0.85800
C1064       C  0.58757380  0.92833479  0.08699721     0.96500
C1065       C  0.58770812  0.57301751  0.08696261     0.96300
N1066       N  0.79815749  0.78607368  0.17448755    -0.06000
N1067       N  0.80402926  0.80900662  0.14902874    -0.58100
N1068       N  0.82606564  0.71504921  0.20254422    -0.05700
N1069       N  0.85149225  0.69209665  0.19668905    -0.60200
N1070       N  0.79818549  0.71522318  0.17431542    -0.05300
N1071       N  0.80419099  0.69248843  0.14857826    -0.58100
N1072       N  0.82634711  0.78594266  0.20240034    -0.04900
N1073       N  0.85203200  0.80872395  0.19641854    -0.60600
C1074       C  0.83773471  0.82299909  0.16305643     0.96200
C1075       C  0.83749675  0.67817478  0.16292752     0.96000
N1076       N  0.79813769  0.71527604  0.32551319    -0.06200
N1077       N  0.80411093  0.69247843  0.35113652    -0.58700
N1078       N  0.82620030  0.78612347  0.29734635    -0.04300
N1079       N  0.85171025  0.80904526  0.30324759    -0.59900
N1080       N  0.79827671  0.78601835  0.32550499    -0.06200
N1081       N  0.80430935  0.80877359  0.35119604    -0.59000
N1082       N  0.82612962  0.71523620  0.29744400    -0.03900
N1083       N  0.85167632  0.69239360  0.30340718    -0.60000
Mn1084     Mn  0.82752383  0.75058257  0.24993631     1.18400
C1085       C  0.83760253  0.67830983  0.33699865     0.98300
C1086       C  0.83770199  0.82302032  0.33694777     0.98900
N1087       N  0.70322597  0.71513391  0.17455701    -0.06200
N1088       N  0.69728745  0.69223914  0.14904173    -0.62500
N1089       N  0.67521440  0.78600551  0.20252515    -0.05000
N1090       N  0.64961945  0.80881413  0.19655079    -0.63200
N1091       N  0.70323897  0.78600840  0.17448979    -0.05700
N1092       N  0.69725593  0.80883162  0.14890186    -0.62800
N1093       N  0.67507676  0.71523820  0.20248982    -0.04600
N1094       N  0.64933648  0.69249442  0.19644627    -0.63500
Mn1095     Mn  0.75069638  0.75061874  0.17313657     1.10700
C1096       C  0.66357291  0.67826940  0.16303785     0.99500
C1097       C  0.66370728  0.82295225  0.16300367     0.99600
N1098       N  0.70333537  0.78607155  0.32548902    -0.05700
N1099       N  0.69734786  0.80888035  0.35109843    -0.61100
N1100       N  0.67525318  0.71524273  0.29742820    -0.05100
N1101       N  0.64968701  0.69238631  0.30336658    -0.57800
N1102       N  0.70325658  0.71529065  0.32551980    -0.06400
N1103       N  0.69726391  0.69248848  0.35113670    -0.60700
N1104       N  0.67532057  0.78608022  0.29740851    -0.05400
N1105       N  0.64975558  0.80891325  0.30335138    -0.57900
Mn1106     Mn  0.75075373  0.75066642  0.32683818     1.20200
Mn1107     Mn  0.67388812  0.75064227  0.24997060     1.10100
Cl1108     Cl  0.75071877  0.75064105  0.24996864    -0.85800
C1109       C  0.66383031  0.82303181  0.33694087     0.96500
C1110       C  0.66375336  0.67830413  0.33697158     0.96300
C1111       C  0.66614706  0.63242280  0.11707209     0.23700
C1112       C  0.64419096  0.65130154  0.14366762    -0.24400
C1113       C  0.60345997  0.64425376  0.15135272     0.18600
C1114       C  0.58513392  0.61886423  0.13292821     0.23700
C1115       C  0.60709003  0.59998547  0.10633270    -0.24300
C1116       C  0.64782101  0.60703327  0.09864762     0.18600
F1117       F  0.67038041  0.58893758  0.07404635    -0.14300
F1118       F  0.70570353  0.63807466  0.10945000    -0.16600
F1119       F  0.54557747  0.61321237  0.14055031    -0.16700
F1120       F  0.58090065  0.66234940  0.17595418    -0.14300
C1121       C  0.63984336  0.61488717  0.41216212     0.23700
C1122       C  0.60692499  0.60000266  0.39365062    -0.24400
C1123       C  0.59296148  0.61109644  0.35624924     0.18600
C1124       C  0.61143746  0.63639978  0.33783874     0.23700
C1125       C  0.64435581  0.65128432  0.35635024    -0.24300
C1126       C  0.65831929  0.64019054  0.39375166     0.18600
F1127       F  0.68973325  0.65391330  0.41295034    -0.14300
F1128       F  0.65421726  0.60519460  0.44834822    -0.16600
F1129       F  0.59706348  0.64609236  0.30165270    -0.16700
F1130       F  0.56154749  0.59737368  0.33705058    -0.14300
C1131       C  0.64289676  0.88887052  0.09061196     0.23700
C1132       C  0.60696575  0.90130399  0.10635793    -0.24400
C1133       C  0.58995271  0.88773413  0.14098848     0.18600
C1134       C  0.60838439  0.86241656  0.15938892     0.23700
C1135       C  0.64431538  0.84998307  0.14364297    -0.24300
C1136       C  0.66132847  0.86355296  0.10901244     0.18600
F1137       F  0.69595885  0.85245280  0.09272430    -0.14300
F1138       F  0.66053592  0.90117658  0.05735958    -0.16600
F1139       F  0.59074525  0.85011059  0.19264136    -0.16700
F1140       F  0.55532229  0.89883421  0.15727660    -0.14300
C1141       C  0.86861746  0.61938257  0.08418597     0.23700
C1142       C  0.89445472  0.60008083  0.10643193    -0.24400
C1143       C  0.90131780  0.60665063  0.14744496     0.18600
C1144       C  0.88266373  0.63190445  0.16581453     0.23700
C1145       C  0.85682646  0.65120619  0.14356856    -0.24300
C1146       C  0.84996338  0.64463638  0.10255556     0.18600
F1147       F  0.82593535  0.66305654  0.07980533    -0.14300
F1148       F  0.86208582  0.61432352  0.04430050    -0.16600
F1149       F  0.88919554  0.63696353  0.20569997    -0.16700
F1150       F  0.92534598  0.58823054  0.17019518    -0.14300
C1151       C  0.88419036  0.86860691  0.33470020     0.23700
C1152       C  0.85702695  0.84999392  0.35636997    -0.24400
C1153       C  0.84869864  0.85731623  0.39689008     0.18600
C1154       C  0.86709065  0.88267999  0.41530068     0.23700
C1155       C  0.89425415  0.90129293  0.39363090    -0.24300
C1156       C  0.90258237  0.89397066  0.35311079     0.18600
F1157       F  0.92786365  0.91173819  0.33083075    -0.14300
F1158       F  0.89243997  0.86271421  0.29533954    -0.16600
F1159       F  0.85884100  0.88857271  0.45466135    -0.16700
F1160       F  0.82341732  0.83954872  0.41917012    -0.14300
C1161       C  0.84311915  0.64027072  0.39384650     0.23700
C1162       C  0.85696212  0.65129184  0.35637166    -0.24400
C1163       C  0.88971696  0.63632735  0.33776329     0.18600
C1164       C  0.90816192  0.61101621  0.35615423     0.23700
C1165       C  0.89431895  0.59999509  0.39362906    -0.24300
C1166       C  0.86156412  0.61495958  0.41223743     0.18600
F1167       F  0.84734000  0.60534988  0.44851012    -0.14300
F1168       F  0.81186325  0.65407191  0.41313854    -0.16600
F1169       F  0.93941791  0.59721505  0.33686229    -0.16700
F1170       F  0.90394116  0.64593711  0.30149067    -0.14300
C1171       C  0.64094642  0.88728054  0.41126580     0.23700
C1172       C  0.60687354  0.90124827  0.39367557    -0.24400
C1173       C  0.59179649  0.88925619  0.35717754     0.18600
C1174       C  0.61033471  0.86400641  0.33873479     0.23700
C1175       C  0.64440757  0.85003869  0.35632502    -0.24300
C1176       C  0.65948467  0.86203080  0.39282297     0.18600
F1177       F  0.69217095  0.84932935  0.41103929    -0.14300
F1178       F  0.65648723  0.89787684  0.44653292    -0.16600
F1179       F  0.59479391  0.85341008  0.30346769    -0.17100
F1180       F  0.55911023  0.90195759  0.33896110    -0.14300
C1181       C  0.91564155  0.88318890  0.13424553     0.23700
C1182       C  0.89421643  0.90126220  0.10625351    -0.24400
C1183       C  0.85400760  0.89339869  0.09719779     0.18600
C1184       C  0.83563972  0.86809785  0.11575477     0.23700
C1185       C  0.85706481  0.85002457  0.14374686    -0.24300
C1186       C  0.89727367  0.85788805  0.15280252     0.18600
F1187       F  0.91930091  0.84074959  0.17903344    -0.14300
F1188       F  0.95474040  0.88955226  0.14320637    -0.16600
F1189       F  0.79654087  0.86173450  0.10679394    -0.16700
F1190       F  0.83198035  0.91053716  0.07096687    -0.14300
N1191       N  0.95300428  0.96526858  0.92449561    -0.06000
N1192       N  0.94697169  0.94251336  0.89880458    -0.58100
N1193       N  0.92515147  0.53605067  0.95255663    -0.05700
N1194       N  0.89960478  0.55889329  0.94659349    -0.60200
N1195       N  0.95314335  0.53601084  0.92448744    -0.05300
N1196       N  0.94717015  0.55880847  0.89886414    -0.58100
N1197       N  0.92508067  0.96516345  0.95265427    -0.04900
N1198       N  0.89957080  0.94224164  0.94675304    -0.60600
C1199       C  0.91357910  0.92826655  0.91305290     0.96200
C1200       C  0.91367858  0.57297709  0.91300206     0.96000
N1201       N  0.95309549  0.53606370  0.57568536    -0.06200
N1202       N  0.94709005  0.55879850  0.60142242    -0.58700
N1203       N  0.92493389  0.96534423  0.54760030    -0.04300
N1204       N  0.89924902  0.94256293  0.55358207    -0.59900
N1205       N  0.95312350  0.96521323  0.57551310    -0.06200
N1206       N  0.94725176  0.94228027  0.60097188    -0.59000
N1207       N  0.92521542  0.53623772  0.54745645    -0.03900
N1208       N  0.89978887  0.55919033  0.55331155    -0.60000
Mn1209     Mn  0.92375714  0.00070426  0.50006434     1.18400
C1210       C  0.91378436  0.57311219  0.58707307     0.98300
C1211       C  0.91354636  0.92828779  0.58694416     0.98900
N1212       N  0.54802439  0.53599618  0.92448076    -0.06200
N1213       N  0.55401703  0.55879837  0.89886392    -0.62500
N1214       N  0.57596044  0.96520662  0.95259224    -0.05000
N1215       N  0.60152540  0.94237369  0.94664926    -0.63200
N1216       N  0.54794556  0.96521532  0.92451161    -0.05700
N1217       N  0.55393321  0.94240666  0.89890218    -0.62800
N1218       N  0.57602778  0.53604410  0.95257238    -0.04600
N1219       N  0.60159388  0.55890057  0.94663409    -0.63500
Mn1220     Mn  0.50052726  0.50062045  0.92316245     1.10700
C1221       C  0.58752755  0.57298275  0.91302912     0.99500
C1222       C  0.58745081  0.92825514  0.91305970     0.99600
N1223       N  0.54804197  0.96527845  0.57551090    -0.05700
N1224       N  0.55402514  0.94245531  0.60109897    -0.61100
N1225       N  0.57620436  0.53604871  0.54751079    -0.05100
N1226       N  0.60194456  0.55879253  0.55355427    -0.57800
N1227       N  0.54805512  0.53615299  0.57544363    -0.06400
N1228       N  0.55399359  0.55904782  0.60095878    -0.60700
N1229       N  0.57606654  0.96528138  0.54747556    -0.05400
N1230       N  0.60166163  0.94247282  0.55345003    -0.57900
Mn1231     Mn  0.50058464  0.50066810  0.57686421     1.20200
Mn1232     Mn  0.57739306  0.50064464  0.50003004     1.10100
Cl1233     Cl  0.50056227  0.50064572  0.50003201    -0.85800
C1234       C  0.58757383  0.92833475  0.58699719     0.96500
C1235       C  0.58770809  0.57301760  0.58696262     0.96300
N1236       N  0.79815762  0.78607362  0.67448752    -0.06000
N1237       N  0.80402942  0.80900654  0.64902868    -0.58100
N1238       N  0.82606567  0.71504923  0.70254418    -0.05700
N1239       N  0.85149228  0.69209659  0.69668907    -0.60200
N1240       N  0.79818558  0.71522320  0.67431539    -0.05300
N1241       N  0.80419101  0.69248838  0.64857827    -0.58100
N1242       N  0.82634716  0.78594261  0.70240033    -0.04900
N1243       N  0.85203206  0.80872392  0.69641859    -0.60600
C1244       C  0.83773480  0.82299904  0.66305644     0.96200
C1245       C  0.83749674  0.67817473  0.66292760     0.96000
N1246       N  0.79813773  0.71527600  0.82551320    -0.06200
N1247       N  0.80411091  0.69247836  0.85113651    -0.58700
N1248       N  0.82620031  0.78612345  0.79734634    -0.04300
N1249       N  0.85171022  0.80904530  0.80324755    -0.59900
N1250       N  0.79827680  0.78601829  0.82550500    -0.06200
N1251       N  0.80430937  0.80877353  0.85119607    -0.59000
N1252       N  0.82612964  0.71523618  0.79744403    -0.03900
N1253       N  0.85167633  0.69239355  0.80340718    -0.60000
Mn1254     Mn  0.82752384  0.75058254  0.74993631     1.18400
C1255       C  0.83760251  0.67830977  0.83699862     0.98300
C1256       C  0.83770196  0.82302031  0.83694775     0.98900
N1257       N  0.70322595  0.71513392  0.67455708    -0.06200
N1258       N  0.69728739  0.69223923  0.64904177    -0.62500
N1259       N  0.67521439  0.78600548  0.70252511    -0.05000
N1260       N  0.64961945  0.80881408  0.69655077    -0.63200
N1261       N  0.70323905  0.78600846  0.67448979    -0.05700
N1262       N  0.69725600  0.80883172  0.64890191    -0.62800
N1263       N  0.67507680  0.71523815  0.70248997    -0.04600
N1264       N  0.64933650  0.69249438  0.69644638    -0.63500
Mn1265     Mn  0.75069642  0.75061880  0.67313657     1.10700
C1266       C  0.66357288  0.67826941  0.66303790     0.99500
C1267       C  0.66370732  0.82295230  0.66300370     0.99600
N1268       N  0.70333544  0.78607147  0.82548906    -0.05700
N1269       N  0.69734790  0.80888026  0.85109847    -0.61100
N1270       N  0.67525324  0.71524276  0.79742824    -0.05100
N1271       N  0.64968715  0.69238630  0.80336656    -0.57800
N1272       N  0.70325662  0.71529068  0.82551994    -0.06400
N1273       N  0.69726390  0.69248857  0.85113681    -0.60700
N1274       N  0.67532063  0.78608016  0.79740851    -0.05400
N1275       N  0.64975569  0.80891320  0.80335135    -0.57900
Mn1276     Mn  0.75075386  0.75066637  0.82683820     1.20200
Mn1277     Mn  0.67388814  0.75064223  0.74997062     1.10100
Cl1278     Cl  0.75071879  0.75064115  0.74996865    -0.85800
C1279       C  0.66383036  0.82303176  0.83694086     0.96500
C1280       C  0.66375338  0.67830415  0.83697162     0.96300
C1281       C  0.66614710  0.63242271  0.61707223     0.23700
C1282       C  0.64419099  0.65130150  0.64366769    -0.24400
C1283       C  0.60345997  0.64425374  0.65135270     0.18600
C1284       C  0.58513391  0.61886424  0.63292818     0.23700
C1285       C  0.60709002  0.59998548  0.60633273    -0.24300
C1286       C  0.64782103  0.60703322  0.59864769     0.18600
F1287       F  0.67038039  0.58893753  0.57404637    -0.14300
F1288       F  0.70570353  0.63807459  0.60945004    -0.16600
F1289       F  0.54557747  0.61321233  0.64055032    -0.16700
F1290       F  0.58090059  0.66234940  0.67595398    -0.14300
C1291       C  0.63984343  0.61488718  0.91216210     0.23700
C1292       C  0.60692503  0.60000264  0.89365059    -0.24400
C1293       C  0.59296150  0.61109641  0.85624921     0.18600
C1294       C  0.61143749  0.63639977  0.83783872     0.23700
C1295       C  0.64435586  0.65128432  0.85635024    -0.24300
C1296       C  0.65831937  0.64019055  0.89375164     0.18600
F1297       F  0.68973339  0.65391337  0.91295028    -0.14300
F1298       F  0.65421748  0.60519454  0.94834812    -0.16600
F1299       F  0.59706345  0.64609247  0.80165274    -0.16700
F1300       F  0.56154748  0.59737361  0.83705057    -0.14300
C1301       C  0.64289678  0.88887053  0.59061198     0.23700
C1302       C  0.60696578  0.90130397  0.60635793    -0.24400
C1303       C  0.58995277  0.88773413  0.64098852     0.18600
C1304       C  0.60838445  0.86241660  0.65938898     0.23700
C1305       C  0.64431542  0.84998311  0.64364303    -0.24300
C1306       C  0.66132847  0.86355299  0.60901245     0.18600
F1307       F  0.69595887  0.85245292  0.59272431    -0.14300
F1308       F  0.66053591  0.90117654  0.55735955    -0.16600
F1309       F  0.59074524  0.85011055  0.69264134    -0.16700
F1310       F  0.55532230  0.89883414  0.65727659    -0.14300
C1311       C  0.86861766  0.61938262  0.58418599     0.23700
C1312       C  0.89445470  0.60008077  0.60643201    -0.24400
C1313       C  0.90131770  0.60665053  0.64744502     0.18600
C1314       C  0.88266366  0.63190435  0.66581461     0.23700
C1315       C  0.85682650  0.65120616  0.64356861    -0.24300
C1316       C  0.84996362  0.64463646  0.60255556     0.18600
F1317       F  0.82593567  0.66305668  0.57980533    -0.14300
F1318       F  0.86208614  0.61432364  0.54430050    -0.16600
F1319       F  0.88919524  0.63696326  0.70570010    -0.16700
F1320       F  0.92534546  0.58823021  0.67019529    -0.14300
C1321       C  0.88419008  0.86860704  0.83469998     0.23700
C1322       C  0.85702688  0.84999395  0.85636988    -0.24400
C1323       C  0.84869883  0.85731610  0.89689008     0.18600
C1324       C  0.86709086  0.88267987  0.91530069     0.23700
C1325       C  0.89425419  0.90129291  0.89363082    -0.24300
C1326       C  0.90258217  0.89397075  0.85311060     0.18600
F1327       F  0.92786331  0.91173833  0.83083048    -0.14300
F1328       F  0.89243962  0.86271437  0.79533927    -0.16600
F1329       F  0.85884129  0.88857261  0.95466136    -0.16700
F1330       F  0.82341766  0.83954847  0.91917014    -0.14300
C1331       C  0.84311915  0.64027068  0.89384651     0.23700
C1332       C  0.85696211  0.65129178  0.85637165    -0.24400
C1333       C  0.88971694  0.63632729  0.83776328     0.18600
C1334       C  0.90816192  0.61101615  0.85615416     0.23700
C1335       C  0.89431897  0.59999505  0.89362904    -0.24300
C1336       C  0.86156417  0.61495957  0.91223746     0.18600
F1337       F  0.84733999  0.60534983  0.94851011    -0.14300
F1338       F  0.81186322  0.65407185  0.91313854    -0.16600
F1339       F  0.93941784  0.59721497  0.83686208    -0.16700
F1340       F  0.90394114  0.64593704  0.80149067    -0.14300
C1341       C  0.64094650  0.88728058  0.91126573     0.23700
C1342       C  0.60687361  0.90124835  0.89367548    -0.24400
C1343       C  0.59179650  0.88925621  0.85717751     0.18600
C1344       C  0.61033472  0.86400644  0.83873473     0.23700
C1345       C  0.64440762  0.85003869  0.85632497    -0.24300
C1346       C  0.65948466  0.86203081  0.89282295     0.18600
F1347       F  0.69217098  0.84932946  0.91103929    -0.14300
F1348       F  0.65648741  0.89787681  0.94653287    -0.16600
F1349       F  0.59479392  0.85341016  0.80346761    -0.17100
F1350       F  0.55911025  0.90195768  0.83896108    -0.14300
C1351       C  0.91564151  0.88318891  0.63424553     0.23700
C1352       C  0.89421632  0.90126228  0.60625362    -0.24400
C1353       C  0.85400749  0.89339879  0.59719792     0.18600
C1354       C  0.83563970  0.86809791  0.61575488     0.23700
C1355       C  0.85706484  0.85002457  0.64374690    -0.24300
C1356       C  0.89727366  0.85788806  0.65280256     0.18600
F1357       F  0.91930091  0.84074954  0.67903342    -0.14300
F1358       F  0.95474044  0.88955217  0.64320611    -0.16600
F1359       F  0.79654081  0.86173464  0.60679421    -0.16700
F1360       F  0.83198016  0.91053725  0.57096700    -0.14300
loop_ 
_geom_bond_atom_site_label_1 
_geom_bond_atom_site_label_2 
_geom_bond_distance 
_geom_bond_site_symmetry_2 
_ccdc_geom_bond_type 
N1            N2   1.320       .  A
N1            N7   1.315       .  A
N1        Mn1050   2.200       .  S
N2            C9   1.353       .  A
N3            N5   1.315       .  A
N3            N4   1.320       .  A
N3         Mn529   2.200       .  S
N4           C10   1.354       .  A
N5            N6   1.320       .  A
N5         Mn710   2.199       .  S
N6           C10   1.354       .  A
N7            N8   1.320       .  A
N7         Mn189   2.203       .  S
N8            C9   1.354       .  A
C9          C135   1.482       .  S
C10         C145   1.484       .  S
N11          N17   1.315       .  A
N11          N12   1.320       .  A
N11        Mn721   2.201       .  S
N12          C20   1.354       .  A
N13          N14   1.320       .  A
N13          N15   1.315       .  A
N13         Mn19   2.201       .  S
N14          C21   1.354       .  A
N15          N16   1.320       .  A
N15       Mn1061   2.201       .  S
N16          C21   1.354       .  A
N17          N18   1.320       .  A
N17        Mn359   2.203       .  S
N18          C20   1.354       .  A
Mn19        N513   2.200   1_554  S
Mn19        N177   2.203   1_554  S
Mn19        N357   2.203       .  S
Mn19      Cl1063   2.546       .  S
C20         C122   1.482       .  S
C21         C162   1.482       .  S
N22          N23   1.320       .  A
N22          N28   1.315       .  A
N22         Mn30   2.200       .  S
N23          C31   1.354       .  A
N24          N26   1.315       .  A
N24          N25   1.320       .  A
N24        Mn552   2.201       .  S
N25          C32   1.354       .  A
N26          N27   1.320       .  A
N26        Mn370   2.200       .  S
N27          C32   1.354       .  A
N28          N29   1.320       .  A
N28        Mn212   2.200       .  S
N29          C31   1.354       .  A
Mn30       N1021   2.200   1_445  S
Mn30        N685   2.199   1_455  S
Mn30        N366   2.200   1_545  S
Mn30       Cl213   2.549       .  S
C31         C102   1.484       .  S
C32         C152   1.485       .  S
N33          N34   1.320       .  A
N33          N39   1.315       .  A
N33        Mn381   2.200       .  S
N34          C44   1.354       .  A
N35          N36   1.320       .  A
N35          N37   1.315       .  A
N35         Mn42   2.201       .  S
N36          C45   1.354       .  A
N37          N38   1.320       .  A
N37         Mn41   2.202       .  S
N38          C45   1.354       .  A
N39          N40   1.320       .  A
N39        Mn382   2.199       .  S
N40          C44   1.354       .  A
Mn41        N691   2.201   1_455  S
Mn41       N1035   2.201   1_445  S
Mn41        N373   2.200   1_545  S
Mn41        Cl43   2.548       .  S
Mn42        N534   2.201   1_544  S
Mn42        N198   2.200   1_554  S
Mn42        N379   2.199   1_545  S
Mn42        Cl43   2.547       .  S
Cl43      Mn1039   2.546   1_455  S
Cl43       Mn200   2.549   1_554  S
C44         C112   1.485       .  S
C45          C95   1.482       .  S
N46          N47   1.320       .  A
N46          N52   1.315       .  A
N46         Mn75   2.201       .  S
N47          C54   1.354       .  A
N48          N50   1.315       .  A
N48          N49   1.320       .  A
N48         Mn64   2.203       .  S
N49          C55   1.354       .  A
N50          N51   1.320       .  A
N50         Mn75   2.201       .  S
N51          C55   1.354       .  A
N52          N53   1.320       .  A
N52         Mn64   2.201       .  S
N53          C54   1.354       .  A
C54         C165   1.482       .  S
C55         C125   1.482       .  S
N56          N62   1.315       .  A
N56          N57   1.320       .  A
N56         Mn86   2.199       .  S
N57          C65   1.354       .  A
N58          N59   1.320       .  A
N58          N60   1.315       .  A
N58         Mn64   2.203       .  S
N59          C66   1.354       .  A
N60          N61   1.320       .  A
N60         Mn86   2.200       .  S
N61          C66   1.353       .  A
N62          N63   1.320       .  A
N62         Mn64   2.200       .  S
N63          C65   1.354       .  A
Mn64        Cl88   2.546       .  S
C65         C142   1.484       .  S
C66         C132   1.482       .  S
N67          N68   1.320       .  A
N67          N73   1.315       .  A
N67         Mn75   2.202       .  S
N68          C76   1.354       .  A
N69          N71   1.315       .  A
N69          N70   1.320       .  A
N69         Mn87   2.199       .  S
N70          C77   1.354       .  A
N71          N72   1.320       .  A
N71         Mn75   2.200       .  S
N72          C77   1.354       .  A
N73          N74   1.320       .  A
N73         Mn87   2.201       .  S
N74          C76   1.354       .  A
Mn75        Cl88   2.548       .  S
C76          C92   1.482       .  S
C77         C115   1.485       .  S
N78          N79   1.320       .  A
N78          N84   1.315       .  A
N78         Mn86   2.200       .  S
N79          C89   1.354       .  A
N80          N81   1.320       .  A
N80          N82   1.315       .  A
N80         Mn87   2.200       .  S
N81          C90   1.354       .  A
N82          N83   1.320       .  A
N82         Mn86   2.200       .  S
N83          C90   1.354       .  A
N84          N85   1.320       .  A
N84         Mn87   2.201       .  S
N85          C89   1.354       .  A
Mn86        Cl88   2.549       .  S
Mn87        Cl88   2.547       .  S
C89         C155   1.485       .  S
C90         C105   1.484       .  S
C91          C92   1.407       .  A
C91          C96   1.399       .  A
C91          F98   1.358       .  S
C92          C93   1.408       .  A
C93          C94   1.399       .  A
C93         F100   1.358       .  S
C94          C95   1.407       .  A
C94          F99   1.358       .  S
C95          C96   1.408       .  A
C96          F97   1.358       .  S
C101        C102   1.409       .  A
C101        C106   1.398       .  A
C101        F108   1.358       .  S
C102        C103   1.409       .  A
C103        C104   1.398       .  A
C103        F110   1.358       .  S
C104        C105   1.409       .  A
C104        F109   1.358       .  S
C105        C106   1.409       .  A
C106        F107   1.358       .  S
C111        C112   1.409       .  A
C111        C116   1.398       .  A
C111        F118   1.358       .  S
C112        C113   1.409       .  A
C113        C114   1.398       .  A
C113        F120   1.358       .  S
C114        C115   1.409       .  A
C114        F119   1.358       .  S
C115        C116   1.409       .  A
C116        F117   1.358       .  S
C121        C122   1.407       .  A
C121        C126   1.399       .  A
C121        F128   1.358       .  S
C122        C123   1.408       .  A
C123        C124   1.399       .  A
C123        F130   1.358       .  S
C124        C125   1.407       .  A
C124        F129   1.358       .  S
C125        C126   1.408       .  A
C126        F127   1.358       .  S
C131        C132   1.407       .  A
C131        C136   1.399       .  A
C131        F138   1.358       .  S
C132        C133   1.408       .  A
C133        C134   1.399       .  A
C133        F140   1.358       .  S
C134        C135   1.407       .  A
C134        F139   1.358       .  S
C135        C136   1.408       .  A
C136        F137   1.358       .  S
C141        C142   1.409       .  A
C141        C146   1.398       .  A
C141        F148   1.358       .  S
C142        C143   1.408       .  A
C143        C144   1.398       .  A
C143        F150   1.358       .  S
C144        C145   1.409       .  A
C144        F149   1.358       .  S
C145        C146   1.408       .  A
C146        F147   1.358       .  S
C151        C152   1.409       .  A
C151        C156   1.398       .  A
C151        F158   1.358       .  S
C152        C153   1.409       .  A
C153        C154   1.398       .  A
C153        F160   1.358       .  S
C154        C155   1.409       .  A
C154        F159   1.358       .  S
C155        C156   1.409       .  A
C156        F157   1.358       .  S
C161        C162   1.408       .  A
C161        C166   1.399       .  A
C161        F168   1.358       .  S
C162        C163   1.408       .  A
C163        C164   1.399       .  A
C163        F170   1.358       .  S
C164        C165   1.408       .  A
C164        F169   1.358       .  S
C165        C166   1.408       .  A
C166        F167   1.358       .  S
N171        N172   1.320       .  A
N171        N177   1.315       .  A
N171      Mn1220   2.200       .  S
N172        C179   1.353       .  A
N173        N175   1.315       .  A
N173        N174   1.320       .  A
N173       Mn359   2.200   1_556  S
N174        C180   1.354       .  A
N175        N176   1.320       .  A
N175       Mn880   2.199       .  S
N176        C180   1.354       .  A
N177        N178   1.320       .  A
N178        C179   1.354       .  A
C179        C305   1.482       .  S
C180        C315   1.484       .  S
N181        N187   1.315       .  A
N181        N182   1.320       .  A
N181       Mn891   2.201       .  S
N182        C190   1.354       .  A
N183        N184   1.320       .  A
N183        N185   1.315       .  A
N183       Mn189   2.201       .  S
N184        C191   1.354       .  A
N185        N186   1.320       .  A
N185      Mn1231   2.201       .  S
N186        C191   1.354       .  A
N187        N188   1.320       .  A
N187       Mn529   2.203       .  S
N188        C190   1.354       .  A
Mn189       N343   2.200       .  S
Mn189       N527   2.203       .  S
Mn189     Cl1233   2.546       .  S
C190        C292   1.482       .  S
C191        C332   1.482       .  S
N192        N193   1.320       .  A
N192        N198   1.315       .  A
N192       Mn200   2.200       .  S
N193        C201   1.354       .  A
N194        N196   1.315       .  A
N194        N195   1.320       .  A
N194       Mn382   2.201   1_556  S
N195        C202   1.354       .  A
N196        N197   1.320       .  A
N196       Mn540   2.200       .  S
N197        C202   1.354       .  A
N198        N199   1.320       .  A
N199        C201   1.354       .  A
Mn200      N1191   2.200   1_445  S
Mn200       N855   2.199   1_455  S
Mn200       N536   2.200   1_545  S
C201        C272   1.484       .  S
C202        C322   1.485       .  S
N203        N204   1.320       .  A
N203        N209   1.315       .  A
N203       Mn551   2.200       .  S
N204        C214   1.354       .  A
N205        N206   1.320       .  A
N205        N207   1.315       .  A
N205       Mn212   2.201       .  S
N206        C215   1.354       .  A
N207        N208   1.320       .  A
N207       Mn211   2.202       .  S
N208        C215   1.354       .  A
N209        N210   1.320       .  A
N209       Mn552   2.199       .  S
N210        C214   1.354       .  A
Mn211       N861   2.201   1_455  S
Mn211      N1205   2.201   1_445  S
Mn211       N543   2.200   1_545  S
Mn211      Cl213   2.548       .  S
Mn212       N364   2.201   1_545  S
Mn212       N549   2.199   1_545  S
Mn212      Cl213   2.547       .  S
Cl213     Mn1209   2.546   1_455  S
C214        C282   1.485       .  S
C215        C265   1.482       .  S
N216        N217   1.320       .  A
N216        N222   1.315       .  A
N216       Mn245   2.201       .  S
N217        C224   1.354       .  A
N218        N220   1.315       .  A
N218        N219   1.320       .  A
N218       Mn234   2.203       .  S
N219        C225   1.354       .  A
N220        N221   1.320       .  A
N220       Mn245   2.201       .  S
N221        C225   1.354       .  A
N222        N223   1.320       .  A
N222       Mn234   2.201       .  S
N223        C224   1.354       .  A
C224        C335   1.482       .  S
C225        C295   1.482       .  S
N226        N232   1.315       .  A
N226        N227   1.320       .  A
N226       Mn256   2.199       .  S
N227        C235   1.354       .  A
N228        N229   1.320       .  A
N228        N230   1.315       .  A
N228       Mn234   2.203       .  S
N229        C236   1.354       .  A
N230        N231   1.320       .  A
N230       Mn256   2.200       .  S
N231        C236   1.353       .  A
N232        N233   1.320       .  A
N232       Mn234   2.200       .  S
N233        C235   1.354       .  A
Mn234      Cl258   2.546       .  S
C235        C312   1.484       .  S
C236        C302   1.482       .  S
N237        N238   1.320       .  A
N237        N243   1.315       .  A
N237       Mn245   2.202       .  S
N238        C246   1.354       .  A
N239        N241   1.315       .  A
N239        N240   1.320       .  A
N239       Mn257   2.199       .  S
N240        C247   1.354       .  A
N241        N242   1.320       .  A
N241       Mn245   2.200       .  S
N242        C247   1.354       .  A
N243        N244   1.320       .  A
N243       Mn257   2.201       .  S
N244        C246   1.354       .  A
Mn245      Cl258   2.548       .  S
C246        C262   1.482       .  S
C247        C285   1.485       .  S
N248        N249   1.320       .  A
N248        N254   1.315       .  A
N248       Mn256   2.200       .  S
N249        C259   1.354       .  A
N250        N251   1.320       .  A
N250        N252   1.315       .  A
N250       Mn257   2.200       .  S
N251        C260   1.354       .  A
N252        N253   1.320       .  A
N252       Mn256   2.200       .  S
N253        C260   1.354       .  A
N254        N255   1.320       .  A
N254       Mn257   2.201       .  S
N255        C259   1.354       .  A
Mn256      Cl258   2.549       .  S
Mn257      Cl258   2.547       .  S
C259        C325   1.485       .  S
C260        C275   1.484       .  S
C261        C262   1.407       .  A
C261        C266   1.399       .  A
C261        F268   1.358       .  S
C262        C263   1.408       .  A
C263        C264   1.399       .  A
C263        F270   1.358       .  S
C264        C265   1.407       .  A
C264        F269   1.358       .  S
C265        C266   1.408       .  A
C266        F267   1.358       .  S
C271        C272   1.409       .  A
C271        C276   1.398       .  A
C271        F278   1.358       .  S
C272        C273   1.409       .  A
C273        C274   1.398       .  A
C273        F280   1.358       .  S
C274        C275   1.409       .  A
C274        F279   1.358       .  S
C275        C276   1.409       .  A
C276        F277   1.358       .  S
C281        C282   1.409       .  A
C281        C286   1.398       .  A
C281        F288   1.358       .  S
C282        C283   1.409       .  A
C283        C284   1.398       .  A
C283        F290   1.358       .  S
C284        C285   1.409       .  A
C284        F289   1.358       .  S
C285        C286   1.409       .  A
C286        F287   1.358       .  S
C291        C292   1.407       .  A
C291        C296   1.399       .  A
C291        F298   1.358       .  S
C292        C293   1.408       .  A
C293        C294   1.399       .  A
C293        F300   1.358       .  S
C294        C295   1.407       .  A
C294        F299   1.358       .  S
C295        C296   1.408       .  A
C296        F297   1.358       .  S
C301        C302   1.407       .  A
C301        C306   1.399       .  A
C301        F308   1.358       .  S
C302        C303   1.408       .  A
C303        C304   1.399       .  A
C303        F310   1.358       .  S
C304        C305   1.407       .  A
C304        F309   1.358       .  S
C305        C306   1.408       .  A
C306        F307   1.358       .  S
C311        C312   1.409       .  A
C311        C316   1.398       .  A
C311        F318   1.358       .  S
C312        C313   1.408       .  A
C313        C314   1.398       .  A
C313        F320   1.358       .  S
C314        C315   1.409       .  A
C314        F319   1.358       .  S
C315        C316   1.408       .  A
C316        F317   1.358       .  S
C321        C322   1.409       .  A
C321        C326   1.398       .  A
C321        F328   1.358       .  S
C322        C323   1.409       .  A
C323        C324   1.398       .  A
C323        F330   1.358       .  S
C324        C325   1.409       .  A
C324        F329   1.358       .  S
C325        C326   1.409       .  A
C326        F327   1.358       .  S
C331        C332   1.408       .  A
C331        C336   1.399       .  A
C331        F338   1.358       .  S
C332        C333   1.408       .  A
C333        C334   1.399       .  A
C333        F340   1.358       .  S
C334        C335   1.408       .  A
C334        F339   1.358       .  S
C335        C336   1.408       .  A
C336        F337   1.358       .  S
N341        N342   1.320       .  A
N341        N347   1.315       .  A
N341       Mn710   2.200   1_565  S
N342        C349   1.353       .  A
N343        N345   1.315       .  A
N343        N344   1.320       .  A
N344        C350   1.354       .  A
N345        N346   1.320       .  A
N345      Mn1050   2.199       .  S
N346        C350   1.354       .  A
N347        N348   1.320       .  A
N347       Mn529   2.203   1_565  S
N348        C349   1.354       .  A
C349        C475   1.482       .  S
C350        C485   1.484       .  S
N351        N357   1.315       .  A
N351        N352   1.320       .  A
N351      Mn1061   2.201       .  S
N352        C360   1.354       .  A
N353        N354   1.320       .  A
N353        N355   1.315       .  A
N353       Mn359   2.201   1_565  S
N354        C361   1.354       .  A
N355        N356   1.320       .  A
N355       Mn721   2.201   1_565  S
N356        C361   1.354       .  A
N357        N358   1.320       .  A
N358        C360   1.354       .  A
Mn359       N517   2.203   1_544  S
Mn359      Cl723   2.546       .  S
C360        C462   1.482       .  S
C361        C502   1.482       .  S
N362        N363   1.320       .  A
N362        N368   1.315       .  A
N362       Mn370   2.200       .  S
N363        C371   1.354       .  A
N364        N366   1.315       .  A
N364        N365   1.320       .  A
N365        C372   1.354       .  A
N366        N367   1.320       .  A
N367        C372   1.354       .  A
N368        N369   1.320       .  A
N368       Mn552   2.200       .  S
N369        C371   1.354       .  A
Mn370       N681   2.200   1_455  S
Mn370      N1025   2.199   1_455  S
Mn370      Cl553   2.549       .  S
C371        C442   1.484       .  S
C372        C492   1.485       .  S
N373        N374   1.320       .  A
N373        N379   1.315       .  A
N374        C384   1.354       .  A
N375        N376   1.320       .  A
N375        N377   1.315       .  A
N375       Mn382   2.201       .  S
N376        C385   1.354       .  A
N377        N378   1.320       .  A
N377       Mn381   2.202       .  S
N378        C385   1.354       .  A
N379        N380   1.320       .  A
N380        C384   1.354       .  A
Mn381      N1031   2.201   1_455  S
Mn381       N695   2.201   1_455  S
Mn381      Cl383   2.548       .  S
Mn382       N538   2.200   1_554  S
Mn382      Cl383   2.547       .  S
Cl383      Mn699   2.546   1_455  S
Cl383      Mn540   2.549   1_554  S
C384        C452   1.485       .  S
C385        C435   1.482       .  S
N386        N387   1.320       .  A
N386        N392   1.315       .  A
N386       Mn415   2.201       .  S
N387        C394   1.354       .  A
N388        N390   1.315       .  A
N388        N389   1.320       .  A
N388       Mn404   2.203       .  S
N389        C395   1.354       .  A
N390        N391   1.320       .  A
N390       Mn415   2.201       .  S
N391        C395   1.354       .  A
N392        N393   1.320       .  A
N392       Mn404   2.201       .  S
N393        C394   1.354       .  A
C394        C505   1.482       .  S
C395        C465   1.482       .  S
N396        N402   1.315       .  A
N396        N397   1.320       .  A
N396       Mn426   2.199       .  S
N397        C405   1.354       .  A
N398        N399   1.320       .  A
N398        N400   1.315       .  A
N398       Mn404   2.203       .  S
N399        C406   1.354       .  A
N400        N401   1.320       .  A
N400       Mn426   2.200       .  S
N401        C406   1.353       .  A
N402        N403   1.320       .  A
N402       Mn404   2.200       .  S
N403        C405   1.354       .  A
Mn404      Cl428   2.546       .  S
C405        C482   1.484       .  S
C406        C472   1.482       .  S
N407        N408   1.320       .  A
N407        N413   1.315       .  A
N407       Mn415   2.202       .  S
N408        C416   1.354       .  A
N409        N411   1.315       .  A
N409        N410   1.320       .  A
N409       Mn427   2.199       .  S
N410        C417   1.354       .  A
N411        N412   1.320       .  A
N411       Mn415   2.200       .  S
N412        C417   1.354       .  A
N413        N414   1.320       .  A
N413       Mn427   2.201       .  S
N414        C416   1.354       .  A
Mn415      Cl428   2.548       .  S
C416        C432   1.482       .  S
C417        C455   1.485       .  S
N418        N419   1.320       .  A
N418        N424   1.315       .  A
N418       Mn426   2.200       .  S
N419        C429   1.354       .  A
N420        N421   1.320       .  A
N420        N422   1.315       .  A
N420       Mn427   2.200       .  S
N421        C430   1.354       .  A
N422        N423   1.320       .  A
N422       Mn426   2.200       .  S
N423        C430   1.354       .  A
N424        N425   1.320       .  A
N424       Mn427   2.201       .  S
N425        C429   1.354       .  A
Mn426      Cl428   2.549       .  S
Mn427      Cl428   2.547       .  S
C429        C495   1.485       .  S
C430        C445   1.484       .  S
C431        C432   1.407       .  A
C431        C436   1.399       .  A
C431        F438   1.358       .  S
C432        C433   1.408       .  A
C433        C434   1.399       .  A
C433        F440   1.358       .  S
C434        C435   1.407       .  A
C434        F439   1.358       .  S
C435        C436   1.408       .  A
C436        F437   1.358       .  S
C441        C442   1.409       .  A
C441        C446   1.398       .  A
C441        F448   1.358       .  S
C442        C443   1.409       .  A
C443        C444   1.398       .  A
C443        F450   1.358       .  S
C444        C445   1.409       .  A
C444        F449   1.358       .  S
C445        C446   1.409       .  A
C446        F447   1.358       .  S
C451        C452   1.409       .  A
C451        C456   1.398       .  A
C451        F458   1.358       .  S
C452        C453   1.409       .  A
C453        C454   1.398       .  A
C453        F460   1.358       .  S
C454        C455   1.409       .  A
C454        F459   1.358       .  S
C455        C456   1.409       .  A
C456        F457   1.358       .  S
C461        C462   1.407       .  A
C461        C466   1.399       .  A
C461        F468   1.358       .  S
C462        C463   1.408       .  A
C463        C464   1.399       .  A
C463        F470   1.358       .  S
C464        C465   1.407       .  A
C464        F469   1.358       .  S
C465        C466   1.408       .  A
C466        F467   1.358       .  S
C471        C472   1.407       .  A
C471        C476   1.399       .  A
C471        F478   1.358       .  S
C472        C473   1.408       .  A
C473        C474   1.399       .  A
C473        F480   1.358       .  S
C474        C475   1.407       .  A
C474        F479   1.358       .  S
C475        C476   1.408       .  A
C476        F477   1.358       .  S
C481        C482   1.409       .  A
C481        C486   1.398       .  A
C481        F488   1.358       .  S
C482        C483   1.408       .  A
C483        C484   1.398       .  A
C483        F490   1.358       .  S
C484        C485   1.409       .  A
C484        F489   1.358       .  S
C485        C486   1.408       .  A
C486        F487   1.358       .  S
C491        C492   1.409       .  A
C491        C496   1.398       .  A
C491        F498   1.358       .  S
C492        C493   1.409       .  A
C493        C494   1.398       .  A
C493        F500   1.358       .  S
C494        C495   1.409       .  A
C494        F499   1.358       .  S
C495        C496   1.409       .  A
C496        F497   1.358       .  S
C501        C502   1.408       .  A
C501        C506   1.399       .  A
C501        F508   1.358       .  S
C502        C503   1.408       .  A
C503        C504   1.399       .  A
C503        F510   1.358       .  S
C504        C505   1.408       .  A
C504        F509   1.358       .  S
C505        C506   1.408       .  A
C506        F507   1.358       .  S
N511        N512   1.320       .  A
N511        N517   1.315       .  A
N511       Mn880   2.200   1_565  S
N512        C519   1.353       .  A
N513        N515   1.315       .  A
N513        N514   1.320       .  A
N514        C520   1.354       .  A
N515        N516   1.320       .  A
N515      Mn1220   2.199       .  S
N516        C520   1.354       .  A
N517        N518   1.320       .  A
N518        C519   1.354       .  A
C519        C645   1.482       .  S
C520        C655   1.484       .  S
N521        N527   1.315       .  A
N521        N522   1.320       .  A
N521      Mn1231   2.201       .  S
N522        C530   1.354       .  A
N523        N524   1.320       .  A
N523        N525   1.315       .  A
N523       Mn529   2.201   1_565  S
N524        C531   1.354       .  A
N525        N526   1.320       .  A
N525       Mn891   2.201   1_565  S
N526        C531   1.354       .  A
N527        N528   1.320       .  A
N528        C530   1.354       .  A
Mn529      Cl893   2.546       .  S
C530        C632   1.482       .  S
C531        C672   1.482       .  S
N532        N533   1.320       .  A
N532        N538   1.315       .  A
N532       Mn540   2.200       .  S
N533        C541   1.354       .  A
N534        N536   1.315       .  A
N534        N535   1.320       .  A
N535        C542   1.354       .  A
N536        N537   1.320       .  A
N537        C542   1.354       .  A
N538        N539   1.320       .  A
N539        C541   1.354       .  A
Mn540       N851   2.200   1_455  S
Mn540      N1195   2.199   1_455  S
C541        C612   1.484       .  S
C542        C662   1.485       .  S
N543        N544   1.320       .  A
N543        N549   1.315       .  A
N544        C554   1.354       .  A
N545        N546   1.320       .  A
N545        N547   1.315       .  A
N545       Mn552   2.201       .  S
N546        C555   1.354       .  A
N547        N548   1.320       .  A
N547       Mn551   2.202       .  S
N548        C555   1.354       .  A
N549        N550   1.320       .  A
N550        C554   1.354       .  A
Mn551      N1201   2.201   1_455  S
Mn551       N865   2.201   1_455  S
Mn551      Cl553   2.548       .  S
Mn552      Cl553   2.547       .  S
Cl553      Mn869   2.546   1_455  S
C554        C622   1.485       .  S
C555        C605   1.482       .  S
N556        N557   1.320       .  A
N556        N562   1.315       .  A
N556       Mn585   2.201       .  S
N557        C564   1.354       .  A
N558        N560   1.315       .  A
N558        N559   1.320       .  A
N558       Mn574   2.203       .  S
N559        C565   1.354       .  A
N560        N561   1.320       .  A
N560       Mn585   2.201       .  S
N561        C565   1.354       .  A
N562        N563   1.320       .  A
N562       Mn574   2.201       .  S
N563        C564   1.354       .  A
C564        C675   1.482       .  S
C565        C635   1.482       .  S
N566        N572   1.315       .  A
N566        N567   1.320       .  A
N566       Mn596   2.199       .  S
N567        C575   1.354       .  A
N568        N569   1.320       .  A
N568        N570   1.315       .  A
N568       Mn574   2.203       .  S
N569        C576   1.354       .  A
N570        N571   1.320       .  A
N570       Mn596   2.200       .  S
N571        C576   1.353       .  A
N572        N573   1.320       .  A
N572       Mn574   2.200       .  S
N573        C575   1.354       .  A
Mn574      Cl598   2.546       .  S
C575        C652   1.484       .  S
C576        C642   1.482       .  S
N577        N578   1.320       .  A
N577        N583   1.315       .  A
N577       Mn585   2.202       .  S
N578        C586   1.354       .  A
N579        N581   1.315       .  A
N579        N580   1.320       .  A
N579       Mn597   2.199       .  S
N580        C587   1.354       .  A
N581        N582   1.320       .  A
N581       Mn585   2.200       .  S
N582        C587   1.354       .  A
N583        N584   1.320       .  A
N583       Mn597   2.201       .  S
N584        C586   1.354       .  A
Mn585      Cl598   2.548       .  S
C586        C602   1.482       .  S
C587        C625   1.485       .  S
N588        N589   1.320       .  A
N588        N594   1.315       .  A
N588       Mn596   2.200       .  S
N589        C599   1.354       .  A
N590        N591   1.320       .  A
N590        N592   1.315       .  A
N590       Mn597   2.200       .  S
N591        C600   1.354       .  A
N592        N593   1.320       .  A
N592       Mn596   2.200       .  S
N593        C600   1.354       .  A
N594        N595   1.320       .  A
N594       Mn597   2.201       .  S
N595        C599   1.354       .  A
Mn596      Cl598   2.549       .  S
Mn597      Cl598   2.547       .  S
C599        C665   1.485       .  S
C600        C615   1.484       .  S
C601        C602   1.407       .  A
C601        C606   1.399       .  A
C601        F608   1.358       .  S
C602        C603   1.408       .  A
C603        C604   1.399       .  A
C603        F610   1.358       .  S
C604        C605   1.407       .  A
C604        F609   1.358       .  S
C605        C606   1.408       .  A
C606        F607   1.358       .  S
C611        C612   1.409       .  A
C611        C616   1.398       .  A
C611        F618   1.358       .  S
C612        C613   1.409       .  A
C613        C614   1.398       .  A
C613        F620   1.358       .  S
C614        C615   1.409       .  A
C614        F619   1.358       .  S
C615        C616   1.409       .  A
C616        F617   1.358       .  S
C621        C622   1.409       .  A
C621        C626   1.398       .  A
C621        F628   1.358       .  S
C622        C623   1.409       .  A
C623        C624   1.398       .  A
C623        F630   1.358       .  S
C624        C625   1.409       .  A
C624        F629   1.358       .  S
C625        C626   1.409       .  A
C626        F627   1.358       .  S
C631        C632   1.407       .  A
C631        C636   1.399       .  A
C631        F638   1.358       .  S
C632        C633   1.408       .  A
C633        C634   1.399       .  A
C633        F640   1.358       .  S
C634        C635   1.407       .  A
C634        F639   1.358       .  S
C635        C636   1.408       .  A
C636        F637   1.358       .  S
C641        C642   1.407       .  A
C641        C646   1.399       .  A
C641        F648   1.358       .  S
C642        C643   1.408       .  A
C643        C644   1.399       .  A
C643        F650   1.358       .  S
C644        C645   1.407       .  A
C644        F649   1.358       .  S
C645        C646   1.408       .  A
C646        F647   1.358       .  S
C651        C652   1.409       .  A
C651        C656   1.398       .  A
C651        F658   1.358       .  S
C652        C653   1.408       .  A
C653        C654   1.398       .  A
C653        F660   1.358       .  S
C654        C655   1.409       .  A
C654        F659   1.358       .  S
C655        C656   1.408       .  A
C656        F657   1.358       .  S
C661        C662   1.409       .  A
C661        C666   1.398       .  A
C661        F668   1.358       .  S
C662        C663   1.409       .  A
C663        C664   1.398       .  A
C663        F670   1.358       .  S
C664        C665   1.409       .  A
C664        F669   1.358       .  S
C665        C666   1.409       .  A
C666        F667   1.358       .  S
C671        C672   1.408       .  A
C671        C676   1.399       .  A
C671        F678   1.358       .  S
C672        C673   1.408       .  A
C673        C674   1.399       .  A
C673        F680   1.358       .  S
C674        C675   1.408       .  A
C674        F679   1.358       .  S
C675        C676   1.408       .  A
C676        F677   1.358       .  S
N681        N682   1.320       .  A
N681        N687   1.315       .  A
N682        C689   1.353       .  A
N683        N685   1.315       .  A
N683        N684   1.320       .  A
N683      Mn1209   2.200       .  S
N684        C690   1.354       .  A
N685        N686   1.320       .  A
N686        C690   1.354       .  A
N687        N688   1.320       .  A
N687       Mn869   2.203       .  S
N688        C689   1.354       .  A
C689        C815   1.482       .  S
C690        C825   1.484       .  S
N691        N697   1.315       .  A
N691        N692   1.320       .  A
N692        C700   1.354       .  A
N693        N694   1.320       .  A
N693        N695   1.315       .  A
N693       Mn699   2.201       .  S
N694        C701   1.354       .  A
N695        N696   1.320       .  A
N696        C701   1.354       .  A
N697        N698   1.320       .  A
N697      Mn1039   2.203       .  S
N698        C700   1.354       .  A
Mn699      N1193   2.200   1_554  S
Mn699       N857   2.203   1_554  S
Mn699      N1037   2.203       .  S
C700        C802   1.482       .  S
C701        C842   1.482       .  S
N702        N703   1.320       .  A
N702        N708   1.315       .  A
N702       Mn710   2.200       .  S
N703        C711   1.354       .  A
N704        N706   1.315       .  A
N704        N705   1.320       .  A
N704      Mn1232   2.201       .  S
N705        C712   1.354       .  A
N706        N707   1.320       .  A
N706      Mn1050   2.200       .  S
N707        C712   1.354       .  A
N708        N709   1.320       .  A
N708       Mn892   2.200       .  S
N709        C711   1.354       .  A
Mn710      N1046   2.200   1_545  S
Mn710      Cl893   2.549       .  S
C711        C782   1.484       .  S
C712        C832   1.485       .  S
N713        N714   1.320       .  A
N713        N719   1.315       .  A
N713      Mn1061   2.200       .  S
N714        C724   1.354       .  A
N715        N716   1.320       .  A
N715        N717   1.315       .  A
N715       Mn722   2.201       .  S
N716        C725   1.354       .  A
N717        N718   1.320       .  A
N717       Mn721   2.202       .  S
N718        C725   1.354       .  A
N719        N720   1.320       .  A
N719      Mn1062   2.199       .  S
N720        C724   1.354       .  A
Mn721      N1053   2.200   1_545  S
Mn721      Cl723   2.548       .  S
Mn722      N1214   2.201   1_544  S
Mn722       N878   2.200   1_554  S
Mn722      N1059   2.199   1_545  S
Mn722      Cl723   2.547       .  S
Cl723      Mn880   2.549   1_554  S
C724        C792   1.485       .  S
C725        C775   1.482       .  S
N726        N727   1.320       .  A
N726        N732   1.315       .  A
N726       Mn755   2.201       .  S
N727        C734   1.354       .  A
N728        N730   1.315       .  A
N728        N729   1.320       .  A
N728       Mn744   2.203       .  S
N729        C735   1.354       .  A
N730        N731   1.320       .  A
N730       Mn755   2.201       .  S
N731        C735   1.354       .  A
N732        N733   1.320       .  A
N732       Mn744   2.201       .  S
N733        C734   1.354       .  A
C734        C845   1.482       .  S
C735        C805   1.482       .  S
N736        N742   1.315       .  A
N736        N737   1.320       .  A
N736       Mn766   2.199       .  S
N737        C745   1.354       .  A
N738        N739   1.320       .  A
N738        N740   1.315       .  A
N738       Mn744   2.203       .  S
N739        C746   1.354       .  A
N740        N741   1.320       .  A
N740       Mn766   2.200       .  S
N741        C746   1.353       .  A
N742        N743   1.320       .  A
N742       Mn744   2.200       .  S
N743        C745   1.354       .  A
Mn744      Cl768   2.546       .  S
C745        C822   1.484       .  S
C746        C812   1.482       .  S
N747        N748   1.320       .  A
N747        N753   1.315       .  A
N747       Mn755   2.202       .  S
N748        C756   1.354       .  A
N749        N751   1.315       .  A
N749        N750   1.320       .  A
N749       Mn767   2.199       .  S
N750        C757   1.354       .  A
N751        N752   1.320       .  A
N751       Mn755   2.200       .  S
N752        C757   1.354       .  A
N753        N754   1.320       .  A
N753       Mn767   2.201       .  S
N754        C756   1.354       .  A
Mn755      Cl768   2.548       .  S
C756        C772   1.482       .  S
C757        C795   1.485       .  S
N758        N759   1.320       .  A
N758        N764   1.315       .  A
N758       Mn766   2.200       .  S
N759        C769   1.354       .  A
N760        N761   1.320       .  A
N760        N762   1.315       .  A
N760       Mn767   2.200       .  S
N761        C770   1.354       .  A
N762        N763   1.320       .  A
N762       Mn766   2.200       .  S
N763        C770   1.354       .  A
N764        N765   1.320       .  A
N764       Mn767   2.201       .  S
N765        C769   1.354       .  A
Mn766      Cl768   2.549       .  S
Mn767      Cl768   2.547       .  S
C769        C835   1.485       .  S
C770        C785   1.484       .  S
C771        C772   1.407       .  A
C771        C776   1.399       .  A
C771        F778   1.358       .  S
C772        C773   1.408       .  A
C773        C774   1.399       .  A
C773        F780   1.358       .  S
C774        C775   1.407       .  A
C774        F779   1.358       .  S
C775        C776   1.408       .  A
C776        F777   1.358       .  S
C781        C782   1.409       .  A
C781        C786   1.398       .  A
C781        F788   1.358       .  S
C782        C783   1.409       .  A
C783        C784   1.398       .  A
C783        F790   1.358       .  S
C784        C785   1.409       .  A
C784        F789   1.358       .  S
C785        C786   1.409       .  A
C786        F787   1.358       .  S
C791        C792   1.409       .  A
C791        C796   1.398       .  A
C791        F798   1.358       .  S
C792        C793   1.409       .  A
C793        C794   1.398       .  A
C793        F800   1.358       .  S
C794        C795   1.409       .  A
C794        F799   1.358       .  S
C795        C796   1.409       .  A
C796        F797   1.358       .  S
C801        C802   1.407       .  A
C801        C806   1.399       .  A
C801        F808   1.358       .  S
C802        C803   1.408       .  A
C803        C804   1.399       .  A
C803        F810   1.358       .  S
C804        C805   1.407       .  A
C804        F809   1.358       .  S
C805        C806   1.408       .  A
C806        F807   1.358       .  S
C811        C812   1.407       .  A
C811        C816   1.399       .  A
C811        F818   1.358       .  S
C812        C813   1.408       .  A
C813        C814   1.399       .  A
C813        F820   1.358       .  S
C814        C815   1.407       .  A
C814        F819   1.358       .  S
C815        C816   1.408       .  A
C816        F817   1.358       .  S
C821        C822   1.409       .  A
C821        C826   1.398       .  A
C821        F828   1.358       .  S
C822        C823   1.408       .  A
C823        C824   1.398       .  A
C823        F830   1.358       .  S
C824        C825   1.409       .  A
C824        F829   1.358       .  S
C825        C826   1.408       .  A
C826        F827   1.358       .  S
C831        C832   1.409       .  A
C831        C836   1.398       .  A
C831        F838   1.358       .  S
C832        C833   1.409       .  A
C833        C834   1.398       .  A
C833        F840   1.358       .  S
C834        C835   1.409       .  A
C834        F839   1.358       .  S
C835        C836   1.409       .  A
C836        F837   1.358       .  S
C841        C842   1.408       .  A
C841        C846   1.399       .  A
C841        F848   1.358       .  S
C842        C843   1.408       .  A
C843        C844   1.399       .  A
C843        F850   1.358       .  S
C844        C845   1.408       .  A
C844        F849   1.358       .  S
C845        C846   1.408       .  A
C846        F847   1.358       .  S
N851        N852   1.320       .  A
N851        N857   1.315       .  A
N852        C859   1.353       .  A
N853        N855   1.315       .  A
N853        N854   1.320       .  A
N853      Mn1039   2.200   1_556  S
N854        C860   1.354       .  A
N855        N856   1.320       .  A
N856        C860   1.354       .  A
N857        N858   1.320       .  A
N858        C859   1.354       .  A
C859        C985   1.482       .  S
C860        C995   1.484       .  S
N861        N867   1.315       .  A
N861        N862   1.320       .  A
N862        C870   1.354       .  A
N863        N864   1.320       .  A
N863        N865   1.315       .  A
N863       Mn869   2.201       .  S
N864        C871   1.354       .  A
N865        N866   1.320       .  A
N866        C871   1.354       .  A
N867        N868   1.320       .  A
N867      Mn1209   2.203       .  S
N868        C870   1.354       .  A
Mn869      N1023   2.200       .  S
Mn869      N1207   2.203       .  S
C870        C972   1.482       .  S
C871       C1012   1.482       .  S
N872        N873   1.320       .  A
N872        N878   1.315       .  A
N872       Mn880   2.200       .  S
N873        C881   1.354       .  A
N874        N876   1.315       .  A
N874        N875   1.320       .  A
N874      Mn1062   2.201   1_556  S
N875        C882   1.354       .  A
N876        N877   1.320       .  A
N876      Mn1220   2.200       .  S
N877        C882   1.354       .  A
N878        N879   1.320       .  A
N879        C881   1.354       .  A
Mn880      N1216   2.200   1_545  S
C881        C952   1.484       .  S
C882       C1002   1.485       .  S
N883        N884   1.320       .  A
N883        N889   1.315       .  A
N883      Mn1231   2.200       .  S
N884        C894   1.354       .  A
N885        N886   1.320       .  A
N885        N887   1.315       .  A
N885       Mn892   2.201       .  S
N886        C895   1.354       .  A
N887        N888   1.320       .  A
N887       Mn891   2.202       .  S
N888        C895   1.354       .  A
N889        N890   1.320       .  A
N889      Mn1232   2.199       .  S
N890        C894   1.354       .  A
Mn891      N1223   2.200   1_545  S
Mn891      Cl893   2.548       .  S
Mn892      N1044   2.201   1_545  S
Mn892      N1229   2.199   1_545  S
Mn892      Cl893   2.547       .  S
C894        C962   1.485       .  S
C895        C945   1.482       .  S
N896        N897   1.320       .  A
N896        N902   1.315       .  A
N896       Mn925   2.201       .  S
N897        C904   1.354       .  A
N898        N900   1.315       .  A
N898        N899   1.320       .  A
N898       Mn914   2.203       .  S
N899        C905   1.354       .  A
N900        N901   1.320       .  A
N900       Mn925   2.201       .  S
N901        C905   1.354       .  A
N902        N903   1.320       .  A
N902       Mn914   2.201       .  S
N903        C904   1.354       .  A
C904       C1015   1.482       .  S
C905        C975   1.482       .  S
N906        N912   1.315       .  A
N906        N907   1.320       .  A
N906       Mn936   2.199       .  S
N907        C915   1.354       .  A
N908        N909   1.320       .  A
N908        N910   1.315       .  A
N908       Mn914   2.203       .  S
N909        C916   1.354       .  A
N910        N911   1.320       .  A
N910       Mn936   2.200       .  S
N911        C916   1.353       .  A
N912        N913   1.320       .  A
N912       Mn914   2.200       .  S
N913        C915   1.354       .  A
Mn914      Cl938   2.546       .  S
C915        C992   1.484       .  S
C916        C982   1.482       .  S
N917        N918   1.320       .  A
N917        N923   1.315       .  A
N917       Mn925   2.202       .  S
N918        C926   1.354       .  A
N919        N921   1.315       .  A
N919        N920   1.320       .  A
N919       Mn937   2.199       .  S
N920        C927   1.354       .  A
N921        N922   1.320       .  A
N921       Mn925   2.200       .  S
N922        C927   1.354       .  A
N923        N924   1.320       .  A
N923       Mn937   2.201       .  S
N924        C926   1.354       .  A
Mn925      Cl938   2.548       .  S
C926        C942   1.482       .  S
C927        C965   1.485       .  S
N928        N929   1.320       .  A
N928        N934   1.315       .  A
N928       Mn936   2.200       .  S
N929        C939   1.354       .  A
N930        N931   1.320       .  A
N930        N932   1.315       .  A
N930       Mn937   2.200       .  S
N931        C940   1.354       .  A
N932        N933   1.320       .  A
N932       Mn936   2.200       .  S
N933        C940   1.354       .  A
N934        N935   1.320       .  A
N934       Mn937   2.201       .  S
N935        C939   1.354       .  A
Mn936      Cl938   2.549       .  S
Mn937      Cl938   2.547       .  S
C939       C1005   1.485       .  S
C940        C955   1.484       .  S
C941        C942   1.407       .  A
C941        C946   1.399       .  A
C941        F948   1.358       .  S
C942        C943   1.408       .  A
C943        C944   1.399       .  A
C943        F950   1.358       .  S
C944        C945   1.407       .  A
C944        F949   1.358       .  S
C945        C946   1.408       .  A
C946        F947   1.358       .  S
C951        C952   1.409       .  A
C951        C956   1.398       .  A
C951        F958   1.358       .  S
C952        C953   1.409       .  A
C953        C954   1.398       .  A
C953        F960   1.358       .  S
C954        C955   1.409       .  A
C954        F959   1.358       .  S
C955        C956   1.409       .  A
C956        F957   1.358       .  S
C961        C962   1.409       .  A
C961        C966   1.398       .  A
C961        F968   1.358       .  S
C962        C963   1.409       .  A
C963        C964   1.398       .  A
C963        F970   1.358       .  S
C964        C965   1.409       .  A
C964        F969   1.358       .  S
C965        C966   1.409       .  A
C966        F967   1.358       .  S
C971        C972   1.407       .  A
C971        C976   1.399       .  A
C971        F978   1.358       .  S
C972        C973   1.408       .  A
C973        C974   1.399       .  A
C973        F980   1.358       .  S
C974        C975   1.407       .  A
C974        F979   1.358       .  S
C975        C976   1.408       .  A
C976        F977   1.358       .  S
C981        C982   1.407       .  A
C981        C986   1.399       .  A
C981        F988   1.358       .  S
C982        C983   1.408       .  A
C983        C984   1.399       .  A
C983        F990   1.358       .  S
C984        C985   1.407       .  A
C984        F989   1.358       .  S
C985        C986   1.408       .  A
C986        F987   1.358       .  S
C991        C992   1.409       .  A
C991        C996   1.398       .  A
C991        F998   1.358       .  S
C992        C993   1.408       .  A
C993        C994   1.398       .  A
C993       F1000   1.358       .  S
C994        C995   1.409       .  A
C994        F999   1.358       .  S
C995        C996   1.408       .  A
C996        F997   1.358       .  S
C1001      C1002   1.409       .  A
C1001      C1006   1.398       .  A
C1001      F1008   1.358       .  S
C1002      C1003   1.409       .  A
C1003      C1004   1.398       .  A
C1003      F1010   1.358       .  S
C1004      C1005   1.409       .  A
C1004      F1009   1.358       .  S
C1005      C1006   1.409       .  A
C1006      F1007   1.358       .  S
C1011      C1012   1.408       .  A
C1011      C1016   1.399       .  A
C1011      F1018   1.358       .  S
C1012      C1013   1.408       .  A
C1013      C1014   1.399       .  A
C1013      F1020   1.358       .  S
C1014      C1015   1.408       .  A
C1014      F1019   1.358       .  S
C1015      C1016   1.408       .  A
C1016      F1017   1.358       .  S
N1021      N1022   1.320       .  A
N1021      N1027   1.315       .  A
N1022      C1029   1.353       .  A
N1023      N1025   1.315       .  A
N1023      N1024   1.320       .  A
N1024      C1030   1.354       .  A
N1025      N1026   1.320       .  A
N1026      C1030   1.354       .  A
N1027      N1028   1.320       .  A
N1027     Mn1209   2.203   1_565  S
N1028      C1029   1.354       .  A
C1029      C1155   1.482       .  S
C1030      C1165   1.484       .  S
N1031      N1037   1.315       .  A
N1031      N1032   1.320       .  A
N1032      C1040   1.354       .  A
N1033      N1034   1.320       .  A
N1033      N1035   1.315       .  A
N1033     Mn1039   2.201   1_565  S
N1034      C1041   1.354       .  A
N1035      N1036   1.320       .  A
N1036      C1041   1.354       .  A
N1037      N1038   1.320       .  A
N1038      C1040   1.354       .  A
Mn1039     N1197   2.203   1_544  S
C1040      C1142   1.482       .  S
C1041      C1182   1.482       .  S
N1042      N1043   1.320       .  A
N1042      N1048   1.315       .  A
N1042     Mn1050   2.200       .  S
N1043      C1051   1.354       .  A
N1044      N1046   1.315       .  A
N1044      N1045   1.320       .  A
N1045      C1052   1.354       .  A
N1046      N1047   1.320       .  A
N1047      C1052   1.354       .  A
N1048      N1049   1.320       .  A
N1048     Mn1232   2.200       .  S
N1049      C1051   1.354       .  A
Mn1050    Cl1233   2.549       .  S
C1051      C1122   1.484       .  S
C1052      C1172   1.485       .  S
N1053      N1054   1.320       .  A
N1053      N1059   1.315       .  A
N1054      C1064   1.354       .  A
N1055      N1056   1.320       .  A
N1055      N1057   1.315       .  A
N1055     Mn1062   2.201       .  S
N1056      C1065   1.354       .  A
N1057      N1058   1.320       .  A
N1057     Mn1061   2.202       .  S
N1058      C1065   1.354       .  A
N1059      N1060   1.320       .  A
N1060      C1064   1.354       .  A
Mn1061    Cl1063   2.548       .  S
Mn1062     N1218   2.200   1_554  S
Mn1062    Cl1063   2.547       .  S
Cl1063    Mn1220   2.549   1_554  S
C1064      C1132   1.485       .  S
C1065      C1115   1.482       .  S
N1066      N1067   1.320       .  A
N1066      N1072   1.315       .  A
N1066     Mn1095   2.201       .  S
N1067      C1074   1.354       .  A
N1068      N1070   1.315       .  A
N1068      N1069   1.320       .  A
N1068     Mn1084   2.203       .  S
N1069      C1075   1.354       .  A
N1070      N1071   1.320       .  A
N1070     Mn1095   2.201       .  S
N1071      C1075   1.354       .  A
N1072      N1073   1.320       .  A
N1072     Mn1084   2.201       .  S
N1073      C1074   1.354       .  A
C1074      C1185   1.482       .  S
C1075      C1145   1.482       .  S
N1076      N1082   1.315       .  A
N1076      N1077   1.320       .  A
N1076     Mn1106   2.199       .  S
N1077      C1085   1.354       .  A
N1078      N1079   1.320       .  A
N1078      N1080   1.315       .  A
N1078     Mn1084   2.203       .  S
N1079      C1086   1.354       .  A
N1080      N1081   1.320       .  A
N1080     Mn1106   2.200       .  S
N1081      C1086   1.353       .  A
N1082      N1083   1.320       .  A
N1082     Mn1084   2.200       .  S
N1083      C1085   1.354       .  A
Mn1084    Cl1108   2.546       .  S
C1085      C1162   1.484       .  S
C1086      C1152   1.482       .  S
N1087      N1088   1.320       .  A
N1087      N1093   1.315       .  A
N1087     Mn1095   2.202       .  S
N1088      C1096   1.354       .  A
N1089      N1091   1.315       .  A
N1089      N1090   1.320       .  A
N1089     Mn1107   2.199       .  S
N1090      C1097   1.354       .  A
N1091      N1092   1.320       .  A
N1091     Mn1095   2.200       .  S
N1092      C1097   1.354       .  A
N1093      N1094   1.320       .  A
N1093     Mn1107   2.201       .  S
N1094      C1096   1.354       .  A
Mn1095    Cl1108   2.548       .  S
C1096      C1112   1.482       .  S
C1097      C1135   1.485       .  S
N1098      N1099   1.320       .  A
N1098      N1104   1.315       .  A
N1098     Mn1106   2.200       .  S
N1099      C1109   1.354       .  A
N1100      N1101   1.320       .  A
N1100      N1102   1.315       .  A
N1100     Mn1107   2.200       .  S
N1101      C1110   1.354       .  A
N1102      N1103   1.320       .  A
N1102     Mn1106   2.200       .  S
N1103      C1110   1.354       .  A
N1104      N1105   1.320       .  A
N1104     Mn1107   2.201       .  S
N1105      C1109   1.354       .  A
Mn1106    Cl1108   2.549       .  S
Mn1107    Cl1108   2.547       .  S
C1109      C1175   1.485       .  S
C1110      C1125   1.484       .  S
C1111      C1112   1.407       .  A
C1111      C1116   1.399       .  A
C1111      F1118   1.358       .  S
C1112      C1113   1.408       .  A
C1113      C1114   1.399       .  A
C1113      F1120   1.358       .  S
C1114      C1115   1.407       .  A
C1114      F1119   1.358       .  S
C1115      C1116   1.408       .  A
C1116      F1117   1.358       .  S
C1121      C1122   1.409       .  A
C1121      C1126   1.398       .  A
C1121      F1128   1.358       .  S
C1122      C1123   1.409       .  A
C1123      C1124   1.398       .  A
C1123      F1130   1.358       .  S
C1124      C1125   1.409       .  A
C1124      F1129   1.358       .  S
C1125      C1126   1.409       .  A
C1126      F1127   1.358       .  S
C1131      C1132   1.409       .  A
C1131      C1136   1.398       .  A
C1131      F1138   1.358       .  S
C1132      C1133   1.409       .  A
C1133      C1134   1.398       .  A
C1133      F1140   1.358       .  S
C1134      C1135   1.409       .  A
C1134      F1139   1.358       .  S
C1135      C1136   1.409       .  A
C1136      F1137   1.358       .  S
C1141      C1142   1.407       .  A
C1141      C1146   1.399       .  A
C1141      F1148   1.358       .  S
C1142      C1143   1.408       .  A
C1143      C1144   1.399       .  A
C1143      F1150   1.358       .  S
C1144      C1145   1.407       .  A
C1144      F1149   1.358       .  S
C1145      C1146   1.408       .  A
C1146      F1147   1.358       .  S
C1151      C1152   1.407       .  A
C1151      C1156   1.399       .  A
C1151      F1158   1.358       .  S
C1152      C1153   1.408       .  A
C1153      C1154   1.399       .  A
C1153      F1160   1.358       .  S
C1154      C1155   1.407       .  A
C1154      F1159   1.358       .  S
C1155      C1156   1.408       .  A
C1156      F1157   1.358       .  S
C1161      C1162   1.409       .  A
C1161      C1166   1.398       .  A
C1161      F1168   1.358       .  S
C1162      C1163   1.408       .  A
C1163      C1164   1.398       .  A
C1163      F1170   1.358       .  S
C1164      C1165   1.409       .  A
C1164      F1169   1.358       .  S
C1165      C1166   1.408       .  A
C1166      F1167   1.358       .  S
C1171      C1172   1.409       .  A
C1171      C1176   1.398       .  A
C1171      F1178   1.358       .  S
C1172      C1173   1.409       .  A
C1173      C1174   1.398       .  A
C1173      F1180   1.358       .  S
C1174      C1175   1.409       .  A
C1174      F1179   1.358       .  S
C1175      C1176   1.409       .  A
C1176      F1177   1.358       .  S
C1181      C1182   1.408       .  A
C1181      C1186   1.399       .  A
C1181      F1188   1.358       .  S
C1182      C1183   1.408       .  A
C1183      C1184   1.399       .  A
C1183      F1190   1.358       .  S
C1184      C1185   1.408       .  A
C1184      F1189   1.358       .  S
C1185      C1186   1.408       .  A
C1186      F1187   1.358       .  S
N1191      N1192   1.320       .  A
N1191      N1197   1.315       .  A
N1192      C1199   1.353       .  A
N1193      N1195   1.315       .  A
N1193      N1194   1.320       .  A
N1194      C1200   1.354       .  A
N1195      N1196   1.320       .  A
N1196      C1200   1.354       .  A
N1197      N1198   1.320       .  A
N1198      C1199   1.354       .  A
C1199      C1325   1.482       .  S
C1200      C1335   1.484       .  S
N1201      N1207   1.315       .  A
N1201      N1202   1.320       .  A
N1202      C1210   1.354       .  A
N1203      N1204   1.320       .  A
N1203      N1205   1.315       .  A
N1203     Mn1209   2.201   1_565  S
N1204      C1211   1.354       .  A
N1205      N1206   1.320       .  A
N1206      C1211   1.354       .  A
N1207      N1208   1.320       .  A
N1208      C1210   1.354       .  A
C1210      C1312   1.482       .  S
C1211      C1352   1.482       .  S
N1212      N1213   1.320       .  A
N1212      N1218   1.315       .  A
N1212     Mn1220   2.200       .  S
N1213      C1221   1.354       .  A
N1214      N1216   1.315       .  A
N1214      N1215   1.320       .  A
N1215      C1222   1.354       .  A
N1216      N1217   1.320       .  A
N1217      C1222   1.354       .  A
N1218      N1219   1.320       .  A
N1219      C1221   1.354       .  A
C1221      C1292   1.484       .  S
C1222      C1342   1.485       .  S
N1223      N1224   1.320       .  A
N1223      N1229   1.315       .  A
N1224      C1234   1.354       .  A
N1225      N1226   1.320       .  A
N1225      N1227   1.315       .  A
N1225     Mn1232   2.201       .  S
N1226      C1235   1.354       .  A
N1227      N1228   1.320       .  A
N1227     Mn1231   2.202       .  S
N1228      C1235   1.354       .  A
N1229      N1230   1.320       .  A
N1230      C1234   1.354       .  A
Mn1231    Cl1233   2.548       .  S
Mn1232    Cl1233   2.547       .  S
C1234      C1302   1.485       .  S
C1235      C1285   1.482       .  S
N1236      N1237   1.320       .  A
N1236      N1242   1.315       .  A
N1236     Mn1265   2.201       .  S
N1237      C1244   1.354       .  A
N1238      N1240   1.315       .  A
N1238      N1239   1.320       .  A
N1238     Mn1254   2.203       .  S
N1239      C1245   1.354       .  A
N1240      N1241   1.320       .  A
N1240     Mn1265   2.201       .  S
N1241      C1245   1.354       .  A
N1242      N1243   1.320       .  A
N1242     Mn1254   2.201       .  S
N1243      C1244   1.354       .  A
C1244      C1355   1.482       .  S
C1245      C1315   1.482       .  S
N1246      N1252   1.315       .  A
N1246      N1247   1.320       .  A
N1246     Mn1276   2.199       .  S
N1247      C1255   1.354       .  A
N1248      N1249   1.320       .  A
N1248      N1250   1.315       .  A
N1248     Mn1254   2.203       .  S
N1249      C1256   1.354       .  A
N1250      N1251   1.320       .  A
N1250     Mn1276   2.200       .  S
N1251      C1256   1.353       .  A
N1252      N1253   1.320       .  A
N1252     Mn1254   2.200       .  S
N1253      C1255   1.354       .  A
Mn1254    Cl1278   2.546       .  S
C1255      C1332   1.484       .  S
C1256      C1322   1.482       .  S
N1257      N1258   1.320       .  A
N1257      N1263   1.315       .  A
N1257     Mn1265   2.202       .  S
N1258      C1266   1.354       .  A
N1259      N1261   1.315       .  A
N1259      N1260   1.320       .  A
N1259     Mn1277   2.199       .  S
N1260      C1267   1.354       .  A
N1261      N1262   1.320       .  A
N1261     Mn1265   2.200       .  S
N1262      C1267   1.354       .  A
N1263      N1264   1.320       .  A
N1263     Mn1277   2.201       .  S
N1264      C1266   1.354       .  A
Mn1265    Cl1278   2.548       .  S
C1266      C1282   1.482       .  S
C1267      C1305   1.485       .  S
N1268      N1269   1.320       .  A
N1268      N1274   1.315       .  A
N1268     Mn1276   2.200       .  S
N1269      C1279   1.354       .  A
N1270      N1271   1.320       .  A
N1270      N1272   1.315       .  A
N1270     Mn1277   2.200       .  S
N1271      C1280   1.354       .  A
N1272      N1273   1.320       .  A
N1272     Mn1276   2.200       .  S
N1273      C1280   1.354       .  A
N1274      N1275   1.320       .  A
N1274     Mn1277   2.201       .  S
N1275      C1279   1.354       .  A
Mn1276    Cl1278   2.549       .  S
Mn1277    Cl1278   2.547       .  S
C1279      C1345   1.485       .  S
C1280      C1295   1.484       .  S
C1281      C1282   1.407       .  A
C1281      C1286   1.399       .  A
C1281      F1288   1.358       .  S
C1282      C1283   1.408       .  A
C1283      C1284   1.399       .  A
C1283      F1290   1.358       .  S
C1284      C1285   1.407       .  A
C1284      F1289   1.358       .  S
C1285      C1286   1.408       .  A
C1286      F1287   1.358       .  S
C1291      C1292   1.409       .  A
C1291      C1296   1.398       .  A
C1291      F1298   1.358       .  S
C1292      C1293   1.409       .  A
C1293      C1294   1.398       .  A
C1293      F1300   1.358       .  S
C1294      C1295   1.409       .  A
C1294      F1299   1.358       .  S
C1295      C1296   1.409       .  A
C1296      F1297   1.358       .  S
C1301      C1302   1.409       .  A
C1301      C1306   1.398       .  A
C1301      F1308   1.358       .  S
C1302      C1303   1.409       .  A
C1303      C1304   1.398       .  A
C1303      F1310   1.358       .  S
C1304      C1305   1.409       .  A
C1304      F1309   1.358       .  S
C1305      C1306   1.409       .  A
C1306      F1307   1.358       .  S
C1311      C1312   1.407       .  A
C1311      C1316   1.399       .  A
C1311      F1318   1.358       .  S
C1312      C1313   1.408       .  A
C1313      C1314   1.399       .  A
C1313      F1320   1.358       .  S
C1314      C1315   1.407       .  A
C1314      F1319   1.358       .  S
C1315      C1316   1.408       .  A
C1316      F1317   1.358       .  S
C1321      C1322   1.407       .  A
C1321      C1326   1.399       .  A
C1321      F1328   1.358       .  S
C1322      C1323   1.408       .  A
C1323      C1324   1.399       .  A
C1323      F1330   1.358       .  S
C1324      C1325   1.407       .  A
C1324      F1329   1.358       .  S
C1325      C1326   1.408       .  A
C1326      F1327   1.358       .  S
C1331      C1332   1.409       .  A
C1331      C1336   1.398       .  A
C1331      F1338   1.358       .  S
C1332      C1333   1.408       .  A
C1333      C1334   1.398       .  A
C1333      F1340   1.358       .  S
C1334      C1335   1.409       .  A
C1334      F1339   1.358       .  S
C1335      C1336   1.408       .  A
C1336      F1337   1.358       .  S
C1341      C1342   1.409       .  A
C1341      C1346   1.398       .  A
C1341      F1348   1.358       .  S
C1342      C1343   1.409       .  A
C1343      C1344   1.398       .  A
C1343      F1350   1.358       .  S
C1344      C1345   1.409       .  A
C1344      F1349   1.358       .  S
C1345      C1346   1.409       .  A
C1346      F1347   1.358       .  S
C1351      C1352   1.408       .  A
C1351      C1356   1.399       .  A
C1351      F1358   1.358       .  S
C1352      C1353   1.408       .  A
C1353      C1354   1.399       .  A
C1353      F1360   1.358       .  S
C1354      C1355   1.408       .  A
C1354      F1359   1.358       .  S
C1355      C1356   1.408       .  A
C1356      F1357   1.358       .  S
