geometry optimzed in LAMMPS
_audit_creation_date              2020-11-30 
_audit_creation_method            'lammps2cif' 
_symmetry_space_group_name_H-M    'P1' 
_symmetry_Int_Tables_number       1 
_symmetry_cell_setting            triclinic 
loop_ 
_symmetry_equiv_pos_as_xyz 
  x,y,z 
_cell_length_a                    34.54393161 
_cell_length_b                    34.4596649370571 
_cell_length_c                    34.39472752541781 
_cell_angle_alpha                 88.76240039376896 
_cell_angle_beta                  88.81651302579452 
_cell_angle_gamma                 91.61392096120487 
loop_ 
_atom_site_label 
_atom_site_type_symbol 
_atom_site_fract_x 
_atom_site_fract_y 
_atom_site_fract_z 
_atom_site_charge 
O1          O  0.53968934  0.05255269  0.85603991    -0.80400
O2          O  0.53075790  0.05486063  0.63410734    -0.81900
O3          O  0.61171340  0.04145877  0.73508566    -0.79000
O4          O  0.52588589  0.13231149  0.75248880    -0.77400
O5          O  0.45970379  0.13249190  0.75396781    -0.79100
O6          O  0.60863722  0.97500909  0.73846260    -0.80100
O7          O  0.56173196  0.09154238  0.67921221    -0.81400
O8          O  0.57656092  0.08085107  0.80647696    -0.81700
Eu9        Eu  0.54591376  0.06463947  0.74482502     2.39200
O10         O  0.48987854  0.06418647  0.70750211    -0.89200
O11         O  0.54437467  0.00938322  0.78617330    -0.92800
C12         C  0.56847775  0.07392487  0.84283208     1.01900
C13         C  0.55335385  0.08345539  0.64377092     1.01700
C14         C  0.62700593  0.00780083  0.73308622     1.01600
C15         C  0.49334387  0.14968132  0.75604910     0.99500
H16         H  0.56520558  0.00764145  0.68932930     0.29300
O17         O  0.54358365  0.00804225  0.70750619    -1.01600
H18         H  0.49273740  0.08692836  0.80365612     0.29300
O19         O  0.49157046  0.06449572  0.78733281    -1.04100
O20         O  0.44104352  0.96170116  0.64289032    -0.81400
O21         O  0.43972527  0.97095766  0.86575073    -0.80900
O22         O  0.55920405  0.92453246  0.68739221    -0.79300
O23         O  0.41648060  0.08939865  0.68514496    -0.82700
O24         O  0.41207885  0.08430538  0.81411505    -0.80500
O25         O  0.57120138  0.93646325  0.81172414    -0.79200
O26         O  0.45157514  0.88481587  0.76301151    -0.80700
O27         O  0.36550027  0.97529456  0.74762424    -0.82600
O28         O  0.51765875  0.88594901  0.75890797    -0.79400
O29         O  0.36734366  0.04167495  0.74512488    -0.82000
O30         O  0.53061765  0.95965959  0.63922874    -0.77800
O31         O  0.53859751  0.96724263  0.85994105    -0.77800
O32         O  0.44792297  0.05482957  0.86077384    -0.77400
O33         O  0.44516220  0.05316326  0.63828892    -0.80900
O34         O  0.41045675  0.92666134  0.69240275    -0.80400
O35         O  0.40358990  0.94044953  0.82007125    -0.78700
Eu36       Eu  0.48802966  0.00742395  0.67031603     2.39800
Eu37       Eu  0.49046125  0.00927567  0.82883614     2.39600
Eu38       Eu  0.54164954  0.95299174  0.74961994     2.38400
Eu39       Eu  0.43541262  0.06471626  0.74956883     2.39900
Eu40       Eu  0.43172509  0.95291220  0.75449061     2.39800
O41         O  0.43445121  0.00955919  0.79102073    -0.93100
O42         O  0.48594212  0.95218333  0.71208474    -0.92000
C43         C  0.41724702  0.93477137  0.65600900     1.02100
C44         C  0.41056312  0.94935457  0.85561712     1.00800
C45         C  0.55260088  0.93225648  0.65133667     1.00200
C46         C  0.42301574  0.08058045  0.64930039     1.02200
C47         C  0.42114246  0.07772833  0.84989239     1.01100
C48         C  0.56539900  0.94463798  0.84774225     0.99900
C49         C  0.48459338  0.86801177  0.76382869     1.00000
C50         C  0.34925704  0.00835448  0.74357869     1.02600
H51         H  0.48726791  0.93048324  0.81062680     0.30000
O52         O  0.48759239  0.95245223  0.79268207    -1.05300
H53         H  0.41149543  0.00795385  0.69626790     0.32000
O54         O  0.43392770  0.00808134  0.71254311    -1.07800
C55         C  0.68826134  0.20402550  0.49278807     0.86200
C56         C  0.66670796  0.18636029  0.52889717    -0.54000
C57         C  0.62748440  0.18402962  0.52561389     0.09100
C58         C  0.61303937  0.20023747  0.48646009     0.20100
C59         C  0.67423138  0.17844260  0.45940313    -0.54700
C60         C  0.63478778  0.17702216  0.45559455     0.09300
C61         C  0.67008373  0.24320438  0.48550246    -0.54300
C62         C  0.63113409  0.24156486  0.48149886     0.09800
H63         H  0.68077660  0.17310029  0.55351612     0.14300
H64         H  0.58104404  0.19922578  0.48398859     0.00100
H65         H  0.69375828  0.16259399  0.44086318     0.14600
H66         H  0.68692062  0.27034514  0.48370809     0.14400
O67         O  0.53681770  0.05553034  0.35365493    -0.80400
O68         O  0.54011835  0.04400391  0.13285867    -0.81900
O69         O  0.61461623  0.04109354  0.25200826    -0.79000
O70         O  0.52319960  0.12732946  0.23176203    -0.77400
O71         O  0.45704037  0.12526867  0.23612502    -0.79100
O72         O  0.61401346  0.97478831  0.25418350    -0.80100
O73         O  0.57438064  0.07643394  0.17865467    -0.81400
O74         O  0.56800647  0.09018056  0.30424915    -0.81700
Eu75       Eu  0.54740725  0.06123109  0.24354914     2.39200
O76         O  0.49160514  0.05955793  0.20581752    -0.89200
O77         O  0.54649154  0.00667222  0.28580626    -0.92800
C78         C  0.56016684  0.08293432  0.34055399     1.01900
C79         C  0.56795186  0.06725830  0.14319146     1.01700
C80         C  0.63159532  0.00834786  0.25609116     1.01600
C81         C  0.48971453  0.14310426  0.22973620     0.99500
H82         H  0.57032136  0.00342694  0.19079532     0.29300
O83         O  0.54719654  0.00427154  0.20694458    -1.01600
H84         H  0.49273791  0.08537368  0.29951421     0.29300
O85         O  0.49263210  0.06156982  0.28521074    -1.04100
O86         O  0.44333189  0.95818275  0.14109316    -0.81400
O87         O  0.45079114  0.95768886  0.36322652    -0.80900
O88         O  0.56767452  0.92652523  0.18574283    -0.79300
O89         O  0.41084341  0.07677722  0.18431577    -0.82700
O90         O  0.41827105  0.08663168  0.31091417    -0.80500
O91         O  0.56692456  0.92736374  0.31356640    -0.79200
O92         O  0.45679188  0.88145845  0.24484655    -0.80700
O93         O  0.36822711  0.97010717  0.26267686    -0.82600
O94         O  0.52292213  0.88151940  0.24456808    -0.79400
O95         O  0.37077327  0.03647995  0.25957269    -0.82000
O96         O  0.53175799  0.95461709  0.13831141    -0.77800
O97         O  0.53685911  0.96338391  0.35981541    -0.77800
O98         O  0.44764714  0.05285064  0.35941318    -0.77400
O99         O  0.44428810  0.04537155  0.13666320    -0.80900
O100        O  0.40780414  0.92790616  0.19043716    -0.80400
O101        O  0.41916388  0.92190552  0.31785511    -0.78700
Eu102      Eu  0.49086061  0.00298269  0.16899828     2.39800
Eu103      Eu  0.49171405  0.00674556  0.32748812     2.39600
Eu104      Eu  0.54635486  0.94985555  0.24924487     2.38400
Eu105      Eu  0.43695082  0.05861321  0.24789838     2.39900
Eu106      Eu  0.43501944  0.94816060  0.25249749     2.39800
O107        O  0.43567705  0.00427847  0.29014925    -0.93100
O108        O  0.49034602  0.94898867  0.21174983    -0.92000
C109        C  0.41578686  0.93508580  0.15408609     1.02100
C110        C  0.42810834  0.92930930  0.35326783     1.00800
C111        C  0.55773239  0.93106141  0.14999391     1.00200
C112        C  0.41805961  0.06864719  0.14849081     1.02200
C113        C  0.42499445  0.07968360  0.34722283     1.01100
C114        C  0.56027517  0.93685216  0.34914232     0.99900
C115        C  0.48936493  0.86418560  0.24184096     1.00000
C116        C  0.35273833  0.00369392  0.26520800     1.02600
H117        H  0.49166523  0.92687404  0.30644430     0.30000
O118        O  0.49114975  0.94991576  0.29002603    -1.05300
H119        H  0.41178118  0.00228686  0.19581799     0.32000
O120        O  0.43531727  0.00271125  0.21048259    -1.07800
C121        C  0.29215469  0.80882300  0.00542580     0.86200
C122        C  0.30986667  0.83049681  0.96954925    -0.54000
C123        C  0.31162283  0.87009396  0.97243078     0.09100
C124        C  0.29499669  0.88435795  0.01145060     0.20100
C125        C  0.31706678  0.82346975  0.03915339    -0.54700
C126        C  0.31813976  0.86278986  0.04209451     0.09300
C127        C  0.25268726  0.82661671  0.01234266    -0.54300
C128        C  0.25382660  0.86583424  0.01602513     0.09800
H129        H  0.32211986  0.81545286  0.94496957     0.14300
H130        H  0.29641897  0.91638208  0.01446903     0.00100
H131        H  0.33410166  0.80564585  0.05817575     0.14600
H132        H  0.22587926  0.80933781  0.01441297     0.14400
C133        C  0.68759111  0.81107557  0.99674692     0.86200
C134        C  0.65909923  0.81918101  0.03043237    -0.54000
C135        C  0.65102271  0.85742413  0.03408527     0.09100
C136        C  0.67212971  0.88452613  0.00390631     0.20100
C137        C  0.66797427  0.82957547  0.96089732    -0.54700
C138        C  0.65985461  0.86833822  0.96436652     0.09300
C139        C  0.72303469  0.83735317  0.00376075    -0.54300
C140        C  0.71518071  0.87544481  0.00767417     0.09800
H141        H  0.64621160  0.79666316  0.04957723     0.14300
H142        H  0.66709678  0.91569215  0.00825236     0.00100
H143        H  0.65798805  0.81315286  0.93648118     0.14600
H144        H  0.75223582  0.82659493  0.00563935     0.14400
C145        C  0.68887370  0.81627356  0.50285596     0.86200
C146        C  0.67579363  0.84491427  0.47093952    -0.54000
C147        C  0.63642665  0.84927900  0.46981536     0.09100
C148        C  0.61404291  0.82531326  0.50167087     0.20100
C149        C  0.67165751  0.83308383  0.54062099    -0.54700
C150        C  0.63255591  0.83794520  0.53978040     0.09300
C151        C  0.66536363  0.77888229  0.49625077    -0.54300
C152        C  0.62650257  0.78352578  0.49543908     0.09800
H153        H  0.69596115  0.86043408  0.45117755     0.14300
H154        H  0.58214077  0.82775931  0.50149867     0.00100
H155        H  0.68883022  0.84380574  0.56436518     0.14600
H156        H  0.67847097  0.75089789  0.49223318     0.14400
C157        C  0.29516959  0.20250915  0.00229623     0.86200
C158        C  0.31376096  0.18600270  0.03930236    -0.54000
C159        C  0.32140851  0.14721924  0.03807342     0.09100
C160        C  0.30805383  0.12809533  0.00021494     0.20100
C161        C  0.32340206  0.19109089  0.96940954    -0.54700
C162        C  0.32957276  0.15208280  0.96799446     0.09300
C163        C  0.25891572  0.17704675  0.99697077    -0.54300
C164        C  0.26531279  0.13829560  0.99519519     0.09800
H165        H  0.32207387  0.20364956  0.06355107     0.14300
H166        H  0.31315452  0.09651229  0.99864794     0.00100
H167        H  0.33757821  0.21192860  0.94931431     0.14600
H168        H  0.23035014  0.18902655  0.99386465     0.14400
C169        C  0.68544449  0.20454826  0.99311247     0.86200
C170        C  0.66206415  0.18870750  0.95885656    -0.54000
C171        C  0.66283134  0.14922069  0.95604951     0.09100
C172        C  0.68652558  0.12885742  0.98746710     0.20100
C173        C  0.66812331  0.18234892  0.02859112    -0.54700
C174        C  0.66803050  0.14277761  0.02589447     0.09300
C175        C  0.72566511  0.18858857  0.98691229    -0.54300
C176        C  0.72703619  0.14933323  0.98445253     0.09800
H177        H  0.64525503  0.20598478  0.93910689     0.14300
H178        H  0.68697826  0.09678680  0.98513846     0.00100
H179        H  0.65493998  0.19705816  0.05292508     0.14600
H180        H  0.75144502  0.20739814  0.98457217     0.14400
C181        C  0.29547757  0.20556777  0.49685065     0.86200
C182        C  0.31082734  0.18613464  0.45973211    -0.54000
C183        C  0.34976008  0.17917026  0.45986845     0.09100
C184        C  0.37004300  0.19332696  0.49689513     0.20100
C185        C  0.30857996  0.17803249  0.53002718    -0.54700
C186        C  0.34766937  0.17225837  0.53054455     0.09300
C187        C  0.32079263  0.24220217  0.50072245    -0.54300
C188        C  0.35957174  0.23620651  0.50154259     0.09800
H189        H  0.29215037  0.17638694  0.43667066     0.14300
H190        H  0.40170617  0.18878357  0.49680757     0.00100
H191        H  0.28892039  0.16290631  0.55043839     0.14600
H192        H  0.30866786  0.27070609  0.50430820     0.14400
C193        C  0.29186614  0.81310199  0.50607254     0.86200
C194        C  0.30703333  0.83649083  0.54008310    -0.54000
C195        C  0.34630849  0.83726966  0.54251696     0.09100
C196        C  0.36733248  0.81456016  0.51059037     0.20100
C197        C  0.31295691  0.83170569  0.47038380    -0.54700
C198        C  0.35234343  0.83222034  0.47226802     0.09300
C199        C  0.30925031  0.77311394  0.51081889    -0.54300
C200        C  0.34857690  0.77320980  0.51329704     0.09800
H201        H  0.28844211  0.85198293  0.55994332     0.14300
H202        H  0.39937059  0.81553103  0.51252865     0.00100
H203        H  0.29883009  0.84641255  0.44678418     0.14600
H204        H  0.29135852  0.74666196  0.51264978     0.14400
O205        O  0.86776792  0.76565657  0.53255760    -0.80400
O206        O  0.02671105  0.75398382  0.37595797    -0.81900
O207        O  0.91602743  0.82459650  0.41830613    -0.79000
O208        O  0.91143813  0.69858339  0.42117106    -0.77400
O209        O  0.94792590  0.65167156  0.44940820    -0.79100
O210        O  0.94506443  0.87139910  0.45477890    -0.80100
O211        O  0.96059023  0.75318843  0.37593354    -0.81400
O212        O  0.86856827  0.76928964  0.46621233    -0.81700
Eu213      Eu  0.93582219  0.76112175  0.44297943     2.39200
O214        O  0.99146579  0.72370932  0.44331744    -0.89200
O215        O  0.93541086  0.79747356  0.49955289    -0.92800
C216        C  0.85117260  0.77117370  0.49974222     1.01900
C217        C  0.99403665  0.74965676  0.35899710     1.01700
C218        C  0.92234315  0.86025284  0.42761537     1.01600
C219        C  0.92120786  0.66306912  0.42637292     0.99500
H220        H  0.99061316  0.81806533  0.41882548     0.29300
O221        O  0.99097061  0.80211212  0.44224182    -1.01600
H222        H  0.91113991  0.70261300  0.49708737     0.29300
O223        O  0.93433999  0.71885230  0.49771581    -1.04100
O224        O  0.11175223  0.77714451  0.46693945    -0.81400
O225        O  0.95716396  0.74429436  0.62101999    -0.80900
O226        O  0.03159555  0.87477251  0.44928499    -0.79300
O227        O  0.03940181  0.65339325  0.45350592    -0.82700
O228        O  0.94206843  0.64617859  0.54039951    -0.80500
O229        O  0.94407378  0.86609608  0.54665398    -0.79200
O230        O  0.06284937  0.82442735  0.57873155    -0.80700
O231        O  0.07098123  0.69814685  0.57164493    -0.82600
O232        O  0.03373275  0.87234637  0.54414665    -0.79400
O233        O  0.03680797  0.65004995  0.54163589    -0.82000
O234        O  0.06311058  0.82933859  0.41408915    -0.77800
O235        O  0.91301677  0.81658272  0.58151787    -0.77800
O236        O  0.90545477  0.69080085  0.57149681    -0.77400
O237        O  0.07540886  0.70261029  0.42346359    -0.80900
O238        O  0.10986976  0.77300488  0.53325947    -0.80400
O239        O  0.02312260  0.74988232  0.62034599    -0.78700
Eu240      Eu  0.04680015  0.76457966  0.44246069     2.39800
Eu241      Eu  0.93374078  0.75552826  0.55446481     2.39600
Eu242      Eu  0.98982437  0.83971436  0.49888224     2.38400
Eu243      Eu  0.99070013  0.68130317  0.49756410     2.39900
Eu244      Eu  0.04356569  0.76080864  0.55332673     2.39800
O245        O  0.98933493  0.71822497  0.55401265    -0.93100
O246        O  0.04543720  0.80240331  0.49834910    -0.92000
C247        C  0.12754642  0.77931937  0.50047629     1.02100
C248        C  0.99030017  0.74296846  0.63772806     1.00800
C249        C  0.05430588  0.86479385  0.42100648     1.00200
C250        C  0.06738596  0.66621352  0.43069921     1.02200
C251        C  0.91368809  0.65550478  0.56324874     1.01100
C252        C  0.92050307  0.85283410  0.57377631     0.99900
C253        C  0.05659601  0.86049111  0.57092692     1.00000
C254        C  0.06377704  0.66206812  0.56440888     1.02600
H255        H  0.98805288  0.81273378  0.57835606     0.30000
O256        O  0.98822123  0.79810215  0.55472461    -1.05300
H257        H  0.06954935  0.70883794  0.49764655     0.32000
O258        O  0.04598359  0.72324733  0.49754409    -1.07800
O259        O  0.86878001  0.24530154  0.53438596    -0.80400
O260        O  0.02871601  0.27223396  0.37970463    -0.81900
O261        O  0.91077646  0.32238636  0.43024636    -0.79000
O262        O  0.92102441  0.19616331  0.41941950    -0.77400
O263        O  0.94942506  0.14786198  0.45440926    -0.79100
O264        O  0.94470460  0.37050250  0.46041024    -0.80100
O265        O  0.96234167  0.27008367  0.38062029    -0.81400
O266        O  0.87080250  0.24977898  0.46805904    -0.81700
Eu267      Eu  0.93844320  0.25916047  0.44707469     2.39200
O268        O  0.99402669  0.22154070  0.44649679    -0.89200
O269        O  0.93658168  0.29624267  0.50301939    -0.92800
C270        C  0.85259861  0.24426955  0.50090257     1.01900
C271        C  0.99559748  0.27500839  0.36333146     1.01700
C272        C  0.91744698  0.35846602  0.43797453     1.01600
C273        C  0.92756433  0.16008616  0.42681006     0.99500
H274        H  0.99399213  0.31930933  0.42524809     0.29300
O275        O  0.99350094  0.30121670  0.44710484    -1.01600
H276        H  0.91481934  0.19855868  0.50128902     0.29300
O277        O  0.93687066  0.21640122  0.50161951    -1.04100
O278        O  0.11628819  0.25616442  0.46839597    -0.81400
O279        O  0.95491070  0.26129027  0.62474859    -0.80900
O280        O  0.04177148  0.37401072  0.46272383    -0.79300
O281        O  0.03780186  0.15194367  0.45415980    -0.82700
O282        O  0.95200201  0.14353649  0.55019046    -0.80500
O283        O  0.94153953  0.36494613  0.54676880    -0.79200
O284        O  0.07094072  0.32195125  0.57935812    -0.80700
O285        O  0.06492835  0.19665872  0.58465389    -0.82600
O286        O  0.03640614  0.36872583  0.54842756    -0.79400
O287        O  0.03794559  0.14922942  0.54728278    -0.82000
O288        O  0.07742739  0.32789186  0.43304110    -0.77800
O289        O  0.90627299  0.31527963  0.57678150    -0.77800
O290        O  0.92054079  0.18886079  0.58558097    -0.77400
O291        O  0.06840412  0.20143547  0.41915972    -0.80900
O292        O  0.11444954  0.25425483  0.53488171    -0.80400
O293        O  0.02108650  0.26293258  0.62611926    -0.78700
Eu294      Eu  0.04915978  0.26299205  0.44718794     2.39800
Eu295      Eu  0.93520859  0.25421887  0.55760148     2.39600
Eu296      Eu  0.99140605  0.33837211  0.50318695     2.38400
Eu297      Eu  0.99289615  0.17951717  0.50152376     2.39900
Eu298      Eu  0.04609677  0.25913949  0.55837401     2.39800
O299        O  0.99119693  0.21736760  0.55767752    -0.93100
O300        O  0.04721089  0.30051297  0.50327623    -0.92000
C301        C  0.13266911  0.25244622  0.50164149     1.02100
C302        C  0.98719388  0.26481160  0.64260274     1.00800
C303        C  0.07056677  0.36348431  0.44101157     1.00200
C304        C  0.06121277  0.16510708  0.42694857     1.02200
C305        C  0.92939915  0.15349613  0.57843667     1.01100
C306        C  0.91354131  0.35166030  0.56928078     0.99900
C307        C  0.06285918  0.35754133  0.57183187     1.00000
C308        C  0.05953430  0.16102529  0.57521970     1.02600
H309        H  0.98910736  0.31287106  0.58050101     0.30000
O310        O  0.99004571  0.29662938  0.55799653    -1.05300
H311        H  0.07002917  0.20503003  0.50203993     0.32000
O312        O  0.04765884  0.22120001  0.50225367    -1.07800
C313        C  0.79802809  0.50208462  0.70028644     0.86200
C314        C  0.81906985  0.46706773  0.68402695    -0.54000
C315        C  0.81794347  0.46442739  0.64445088     0.09100
C316        C  0.79639976  0.49787848  0.62454825     0.20100
C317        C  0.81778176  0.53708684  0.67877122    -0.54700
C318        C  0.81712534  0.53506367  0.63928187     0.09300
C319        C  0.75743422  0.49919622  0.68415351    -0.55900
C320        C  0.75587693  0.49666935  0.64485610     0.09800
H321        H  0.83491282  0.44708153  0.70213906     0.14300
H322        H  0.79560454  0.49632080  0.59236876     0.00100
H323        H  0.83353764  0.56032095  0.69287152     0.14600
H324        H  0.73167500  0.49784623  0.70290824     0.14400
C325        C  0.18852296  0.51391875  0.69376054     0.86200
C326        C  0.16868681  0.55037715  0.67760811    -0.54000
C327        C  0.16236227  0.54968972  0.63853672     0.09100
C328        C  0.17715415  0.51307864  0.61885575     0.20100
C329        C  0.16179790  0.48025860  0.68073228    -0.54700
C330        C  0.15620307  0.47906070  0.64124997     0.09300
C331        C  0.22547059  0.51061363  0.66902000    -0.54300
C332        C  0.21965826  0.50992879  0.63009566     0.09800
H333        H  0.15735574  0.57326186  0.69527734     0.14300
H334        H  0.17440472  0.51377894  0.58696597     0.00100
H335        H  0.14836398  0.45958579  0.70143453     0.14600
H336        H  0.25396858  0.50773832  0.68140806     0.14400
C337        C  0.79467668  0.01271777  0.30294347     0.86200
C338        C  0.80629623  0.97912052  0.33059574    -0.54000
C339        C  0.84543519  0.97742023  0.33667493     0.09100
C340        C  0.86903769  0.01021159  0.31546878     0.20100
C341        C  0.81165904  0.04906707  0.32273239    -0.54700
C342        C  0.85043271  0.04759800  0.32944972     0.09300
C343        C  0.81970859  0.00767677  0.26625986    -0.54300
C344        C  0.85837290  0.00591767  0.27267947     0.09800
H345        H  0.78525429  0.95922323  0.34465269     0.14300
H346        H  0.90074381  0.00966380  0.31968074     0.00100
H347        H  0.79440133  0.07219391  0.33412152     0.14600
H348        H  0.80760093  0.00430264  0.23757381     0.14400
C349        C  0.79069325  0.00096352  0.69514205     0.86200
C350        C  0.81126930  0.03677722  0.67605926    -0.54000
C351        C  0.85066449  0.03458299  0.67422260     0.09100
C352        C  0.86614507  0.99687404  0.69272568     0.20100
C353        C  0.80572820  0.96707888  0.67126223    -0.54700
C354        C  0.84516349  0.96424517  0.67051391     0.09300
C355        C  0.80883316  0.99595955  0.73477984    -0.54300
C356        C  0.84800368  0.99425248  0.73412877     0.09800
H357        H  0.79593348  0.06086261  0.66331062     0.14300
H358        H  0.89819932  0.99573053  0.69244662     0.00100
H359        H  0.78756523  0.94895803  0.65352960     0.14600
H360        H  0.79175882  0.99419956  0.76172319     0.14400
C361        C  0.79507718  0.50680464  0.30637416     0.86200
C362        C  0.82347367  0.54051813  0.31551096    -0.54000
C363        C  0.83022742  0.54414069  0.35416922     0.09100
C364        C  0.80876405  0.51380679  0.38049338     0.20100
C365        C  0.81391407  0.47110847  0.32533672    -0.54700
C366        C  0.82117286  0.47448977  0.36426771     0.09300
C367        C  0.75910783  0.51387553  0.33147938    -0.54300
C368        C  0.76606931  0.51801317  0.36996076     0.09800
H369        H  0.83667267  0.56010900  0.29356966     0.14300
H370        H  0.81380284  0.51773654  0.41191356     0.00100
H371        H  0.82448099  0.44695330  0.30903803     0.14600
H372        H  0.73036152  0.51620796  0.31951637     0.14400
C373        C  0.18844686  0.51589820  0.30349791     0.86200
C374        C  0.17068660  0.48019592  0.32517855    -0.54000
C375        C  0.17009715  0.48246649  0.36490071     0.09100
C376        C  0.18844266  0.52111389  0.37938945     0.20100
C377        C  0.16489680  0.54989207  0.31901243    -0.54700
C378        C  0.16494940  0.55268699  0.35859081     0.09300
C379        C  0.22830608  0.52213863  0.32026123    -0.54300
C380        C  0.22937373  0.52435638  0.35959041     0.09800
H381        H  0.15770306  0.45596387  0.30996216     0.14300
H382        H  0.18863133  0.52335863  0.41152041     0.00100
H383        H  0.14808892  0.56926753  0.30131992     0.14600
H384        H  0.25418563  0.52489754  0.30174711     0.14400
C385        C  0.18929203  0.01858517  0.30172302     0.86200
C386        C  0.17562462  0.05098974  0.32875091    -0.54000
C387        C  0.13632110  0.05329734  0.33145221     0.09100
C388        C  0.11404792  0.02348763  0.30738944     0.20100
C389        C  0.16861117  0.98186003  0.31844555    -0.54700
C390        C  0.12925635  0.98391068  0.32148848     0.09300
C391        C  0.16993562  0.02725815  0.26308707    -0.54300
C392        C  0.13082786  0.03050435  0.26574112     0.09800
H393        H  0.19416524  0.07019980  0.34506590     0.14300
H394        H  0.08209577  0.02586909  0.30979412     0.00100
H395        H  0.18438777  0.95721226  0.32933023     0.14600
H396        H  0.18606923  0.03041432  0.23568825     0.14400
C397        C  0.18758782  0.00963062  0.69640787     0.86200
C398        C  0.17114294  0.97409577  0.67488675    -0.54000
C399        C  0.13231619  0.97545278  0.66754456     0.09100
C400        C  0.11343289  0.01219979  0.68320680     0.20100
C401        C  0.17635439  0.04418566  0.67019512    -0.54700
C402        C  0.13757519  0.04556602  0.66395565     0.09300
C403        C  0.16215923  0.01248185  0.73310570    -0.54300
C404        C  0.12357531  0.01407416  0.72638748     0.09800
H405        H  0.18900918  0.95149598  0.66338041     0.14300
H406        H  0.08187327  0.01398838  0.67832468     0.00100
H407        H  0.19692253  0.06554318  0.65758364     0.14600
H408        H  0.17388479  0.01434384  0.76211174     0.14400
O409        O  0.73793901  0.63169185  0.96797370    -0.80400
O410        O  0.74561952  0.47408323  0.12636542    -0.81900
O411        O  0.67674473  0.58568844  0.07986786    -0.79000
O412        O  0.80406566  0.58768768  0.07865365    -0.77400
O413        O  0.85068891  0.55207582  0.04918936    -0.79100
O414        O  0.63065184  0.55502027  0.04389872    -0.80100
O415        O  0.74637135  0.54038201  0.12567799    -0.81400
O416        O  0.73640666  0.63156210  0.03437337    -0.81700
Eu417      Eu  0.74048166  0.56371536  0.05804303     2.39200
O418        O  0.77757543  0.50759538  0.05861686    -0.89200
O419        O  0.70360751  0.56346706  0.00170922    -0.92800
C420        C  0.73460908  0.64886987  0.00075523     1.01900
C421        C  0.74911877  0.50709255  0.14323498     1.01700
C422        C  0.64133094  0.57904451  0.07001410     1.01600
C423        C  0.83964890  0.57886813  0.07228780     0.99500
H424        H  0.68289717  0.50882069  0.08215976     0.29300
O425        O  0.69914304  0.50835141  0.05899732    -1.01600
H426        H  0.79798387  0.58761554  0.00366597     0.29300
O427        O  0.78178574  0.56436069  0.00312561    -1.04100
O428        O  0.72499748  0.38525234  0.03798001    -0.81400
O429        O  0.75813001  0.54206334  0.88087396    -0.80900
O430        O  0.62665865  0.46604319  0.05129014    -0.79300
O431        O  0.84671762  0.46058522  0.04920726    -0.82700
O432        O  0.85464668  0.55765752  0.96232248    -0.80500
O433        O  0.63432324  0.55483234  0.95558606    -0.79200
O434        O  0.67617688  0.43710158  0.92036934    -0.80700
O435        O  0.80137039  0.42895688  0.92722418    -0.82600
O436        O  0.62883230  0.46668042  0.95516234    -0.79400
O437        O  0.84933637  0.46336005  0.95776352    -0.82000
O438        O  0.67188873  0.43444097  0.08665157    -0.77800
O439        O  0.68306637  0.58568641  0.91985607    -0.77800
O440        O  0.80983759  0.59351587  0.93065297    -0.77400
O441        O  0.79743835  0.42399987  0.07861576    -0.80900
O442        O  0.72587216  0.38711964  0.97144170    -0.80400
O443        O  0.75300510  0.47588547  0.88225262    -0.78700
Eu444      Eu  0.73633773  0.45216625  0.05955418     2.39800
Eu445      Eu  0.74492508  0.56503038  0.94665758     2.39600
Eu446      Eu  0.66173658  0.50857855  0.00215429     2.38400
Eu447      Eu  0.81912792  0.50803586  0.00372135     2.39900
Eu448      Eu  0.73919760  0.45390409  0.94859871     2.39800
O449        O  0.78126807  0.50874519  0.94815421    -0.93100
O450        O  0.69826290  0.45246074  0.00375961    -0.92000
C451        C  0.72093901  0.36933774  0.00460764     1.02100
C452        C  0.76026677  0.50872485  0.86473681     1.00800
C453        C  0.63655689  0.44274017  0.07921753     1.00200
C454        C  0.83352855  0.43261784  0.07182690     1.02200
C455        C  0.84510378  0.58613696  0.93960234     1.01100
C456        C  0.64687922  0.57882859  0.92851437     0.99900
C457        C  0.64032203  0.44460728  0.92756734     1.00000
C458        C  0.83711912  0.43731179  0.93410613     1.02600
H459        H  0.68824618  0.51061861  0.92270705     0.30000
O460        O  0.70283034  0.51007468  0.94635193    -1.05300
H461        H  0.79202985  0.42870437  0.00396608     0.32000
O462        O  0.77745659  0.45221762  0.00413751    -1.07800
O463        O  0.25407598  0.62759469  0.96222886    -0.80400
O464        O  0.22783488  0.47148180  0.12293987    -0.81900
O465        O  0.17649416  0.58608359  0.07271799    -0.79000
O466        O  0.30286746  0.57544296  0.08184838    -0.77400
O467        O  0.35021582  0.54640681  0.04618035    -0.79100
O468        O  0.12832954  0.54968860  0.04492920    -0.80100
O469        O  0.23141118  0.53793366  0.12059606    -0.81400
O470        O  0.25082633  0.62620321  0.02875527    -0.81700
Eu471      Eu  0.23982800  0.55958208  0.05320988     2.39200
O472        O  0.27664934  0.50347032  0.05410339    -0.89200
O473        O  0.20201221  0.56040692  0.99757004    -0.92800
C474        C  0.25635712  0.64385794  0.99557428     1.01900
C475        C  0.22624850  0.50512293  0.13882746     1.01700
C476        C  0.14045186  0.57729772  0.06682637     1.01600
C477        C  0.33864842  0.56807964  0.07420536     0.99500
H478        H  0.18019025  0.50430189  0.07739567     0.29300
O479        O  0.19766740  0.50440696  0.05513166    -1.01600
H480        H  0.30012124  0.58174788  0.99761145     0.29300
O481        O  0.28184091  0.56000908  0.99797918    -1.04100
O482        O  0.24254786  0.38131713  0.03379640    -0.81400
O483        O  0.23545772  0.53966024  0.87545109    -0.80900
O484        O  0.12475187  0.45487913  0.03967849    -0.79300
O485        O  0.34573574  0.45854526  0.04668322    -0.82700
O486        O  0.35258981  0.54277757  0.94665703    -0.80500
O487        O  0.13177131  0.55468203  0.95741722    -0.79200
O488        O  0.17255373  0.42489725  0.92509166    -0.80700
O489        O  0.30085493  0.42733919  0.92043001    -0.82600
O490        O  0.12687536  0.46158739  0.95465402    -0.79400
O491        O  0.34812274  0.45674530  0.95596038    -0.82000
O492        O  0.17038370  0.42021954  0.07119535    -0.77800
O493        O  0.18114653  0.58792200  0.92469731    -0.77800
O494        O  0.30765239  0.57412893  0.91084195    -0.77400
O495        O  0.29664845  0.42877053  0.08293615    -0.80900
O496        O  0.24264852  0.38126247  0.96732822    -0.80400
O497        O  0.23263019  0.47334207  0.87512398    -0.78700
Eu498      Eu  0.23507487  0.44836711  0.05559428     2.39800
Eu499      Eu  0.24335579  0.56033396  0.94220315     2.39600
Eu500      Eu  0.15992222  0.50518062  0.99954042     2.38400
Eu501      Eu  0.31800015  0.50361889  0.99882334     2.39900
Eu502      Eu  0.23730145  0.44908993  0.94355670     2.39800
O503        O  0.27958160  0.50383701  0.94294585    -0.93100
O504        O  0.19705958  0.44885699  0.99969751    -0.92000
C505        C  0.24577690  0.36409907  0.00092444     1.02100
C506        C  0.23115727  0.50716927  0.85801918     1.00800
C507        C  0.13498720  0.42670534  0.06230037     1.00200
C508        C  0.33281586  0.43568652  0.07460020     1.02200
C509        C  0.34292655  0.56452077  0.91742804     1.01100
C510        C  0.14498831  0.58152237  0.93356245     0.99900
C511        C  0.13710646  0.43439923  0.93168802     1.00000
C512        C  0.33660796  0.43308395  0.92972945     1.02600
H513        H  0.18394736  0.50637845  0.92151068     0.30000
O514        O  0.20052192  0.50564541  0.94376713    -1.05300
H515        H  0.29158197  0.42707324  0.00023805     0.32000
O516        O  0.27544832  0.44946694  0.99966578    -1.07800
C517        C  0.99649816  0.70440945  0.80304911     0.86200
C518        C  0.02870383  0.67776179  0.81698055    -0.54000
C519        C  0.03270573  0.67623189  0.85658731     0.09100
C520        C  0.00322755  0.70083640  0.87852119     0.20100
C521        C  0.95989086  0.68839978  0.82501101    -0.54700
C522        C  0.96343453  0.68606454  0.86437107     0.09300
C523        C  0.00541149  0.74358430  0.82138229    -0.54300
C524        C  0.00982638  0.74201049  0.86050890     0.09800
H525        H  0.04620147  0.66127289  0.79704889     0.14300
H526        H  0.00578940  0.69993710  0.91059778     0.00100
H527        H  0.93437712  0.67642368  0.81142847     0.14600
H528        H  0.00782264  0.77059352  0.80449194     0.14400
C529        C  0.98182510  0.30901683  0.80576621     0.86200
C530        C  0.94573125  0.32944618  0.82163963    -0.54000
C531        C  0.94741920  0.33871537  0.86002150     0.09100
C532        C  0.98475216  0.32542561  0.87949813     0.20100
C533        C  0.01587355  0.33662765  0.81599914    -0.54700
C534        C  0.01755526  0.34500152  0.85470477     0.09300
C535        C  0.98570321  0.27353660  0.83283640    -0.54300
C536        C  0.98762288  0.28205251  0.87115587     0.09800
H537        H  0.92111092  0.33718259  0.80462483     0.14300
H538        H  0.98687555  0.33165526  0.91083898     0.00100
H539        H  0.03648322  0.34855744  0.79436551     0.14600
H540        H  0.98792404  0.24409484  0.82247380     0.14400
C541        C  0.49520655  0.70185732  0.80059374     0.86200
C542        C  0.45888722  0.67809102  0.81478481    -0.54000
C543        C  0.46422115  0.63910086  0.81971015     0.09100
C544        C  0.50613442  0.62730622  0.80950191     0.20100
C545        C  0.52627706  0.69186741  0.83045416    -0.54700
C546        C  0.53192552  0.65293944  0.83496685     0.09300
C547        C  0.50805597  0.68197514  0.76349386    -0.54300
C548        C  0.51480705  0.64346230  0.76775092     0.09800
H549        H  0.43171553  0.69062327  0.82307492     0.14300
H550        H  0.51127314  0.59581600  0.81342505     0.00100
H551        H  0.54284665  0.71361046  0.84596909     0.14600
H552        H  0.51113384  0.69739388  0.73564843     0.14400
C553        C  0.48690220  0.70014012  0.19760777     0.86200
C554        C  0.51986014  0.69086081  0.16866850    -0.54000
C555        C  0.52274016  0.65217417  0.16099542     0.09100
C556        C  0.49154214  0.62632388  0.18223950     0.20100
C557        C  0.45036500  0.68244433  0.17852472    -0.54700
C558        C  0.45308779  0.64398441  0.17013736     0.09300
C559        C  0.49357997  0.67394856  0.23321112    -0.54300
C560        C  0.49636627  0.63553841  0.22542456     0.09800
H561        H  0.53873199  0.71320679  0.15518084     0.14300
H562        H  0.49331100  0.59484642  0.17657497     0.00100
H563        H  0.42568436  0.69877873  0.16941687     0.14600
H564        H  0.49697769  0.68513190  0.26228355     0.14400
C565        C  0.98200995  0.31097399  0.19947817     0.86200
C566        C  0.01798726  0.32738987  0.17757820    -0.54000
C567        C  0.01468657  0.32975782  0.13803725     0.09100
C568        C  0.97490400  0.31455757  0.12399601     0.20100
C569        C  0.94922169  0.33717091  0.18578250    -0.54700
C570        C  0.94570813  0.33875688  0.14640851     0.09300
C571        C  0.97290348  0.27177053  0.18118948    -0.54300
C572        C  0.96901348  0.27322197  0.14189610     0.09800
H573        H  0.04320619  0.33832479  0.19269110     0.14300
H574        H  0.97136055  0.31615839  0.09202996     0.00100
H575        H  0.93016741  0.35336655  0.20430438     0.14600
H576        H  0.97022136  0.24482931  0.19816116     0.14400
C577        C  0.99471018  0.70233493  0.19684398     0.86200
C578        C  0.96033358  0.67635135  0.18445986    -0.54000
C579        C  0.95887548  0.67099208  0.14519658     0.09100
C580        C  0.99207577  0.69180857  0.12184691     0.20100
C581        C  0.03023465  0.68186380  0.17979178    -0.54700
C582        C  0.02874019  0.67592653  0.14068830     0.09300
C583        C  0.99147647  0.73975766  0.17259702    -0.54300
C584        C  0.98925731  0.73460112  0.13359979     0.09800
H585        H  0.93944519  0.66285159  0.20494164     0.14300
H586        H  0.99074952  0.68773846  0.08997799     0.00100
H587        H  0.05307416  0.66977595  0.19699330     0.14600
H588        H  0.98918532  0.76810870  0.18557827     0.14400
C589        C  0.49193306  0.31233022  0.80316742     0.86200
C590        C  0.52735623  0.33021185  0.82359955    -0.54000
C591        C  0.52503283  0.36908087  0.83094490     0.09100
C592        C  0.48643353  0.38629205  0.81766954     0.20100
C593        C  0.45765770  0.32165430  0.83042696    -0.54700
C594        C  0.45486460  0.36024072  0.83800069     0.09300
C595        C  0.48691538  0.33817474  0.76711089    -0.54300
C596        C  0.48310845  0.37659277  0.77431288     0.09800
H597        H  0.55075011  0.31324449  0.83450624     0.14300
H598        H  0.48323673  0.41761834  0.82335158     0.00100
H599        H  0.43745285  0.29974286  0.84268738     0.14600
H600        H  0.48536650  0.32660772  0.73801715     0.14400
C601        C  0.47960101  0.30772567  0.19554403     0.86200
C602        C  0.44564598  0.32414618  0.17283842    -0.54000
C603        C  0.44468398  0.36369852  0.17270378     0.09100
C604        C  0.47779807  0.38355678  0.19518166     0.20100
C605        C  0.51538509  0.32792102  0.17659719    -0.54700
C606        C  0.51504283  0.36756702  0.17605085     0.09300
C607        C  0.47539267  0.32484157  0.23565321    -0.54300
C608        C  0.47485144  0.36431231  0.23654197     0.09800
H609        H  0.42504210  0.30709005  0.15656008     0.14300
H610        H  0.47706554  0.41569273  0.19481430     0.00100
H611        H  0.53833102  0.31171381  0.16300202     0.14600
H612        H  0.47182019  0.30626737  0.26146315     0.14400
O613        O  0.56490102  0.41686255  0.44912370    -0.80400
O614        O  0.45241748  0.49442322  0.62274108    -0.81900
O615        O  0.58068683  0.45362964  0.57533598    -0.79000
O616        O  0.47561766  0.38711104  0.54007290    -0.77400
O617        O  0.42597908  0.40009683  0.49895309    -0.79100
O618        O  0.60236871  0.51599330  0.56222269    -0.80100
O619        O  0.49186798  0.44328310  0.61113489    -0.81400
O620        O  0.55368092  0.39938941  0.51292063    -0.81700
Eu621      Eu  0.51598824  0.44731092  0.54411681     2.39200
O622        O  0.45208849  0.46991765  0.54170496    -0.89200
O623        O  0.55775449  0.48633205  0.50414260    -0.92800
C624        C  0.56581579  0.39241765  0.47842222     1.01900
C625        C  0.46972110  0.46313825  0.63318654     1.01700
C626        C  0.60604897  0.48196880  0.57722120     1.01600
C627        C  0.44509248  0.37729168  0.52110846     0.99500
H628        H  0.52412042  0.51026082  0.59133989     0.29300
O629        O  0.51477477  0.51107385  0.56512009    -1.01600
H630        H  0.49410260  0.41867683  0.47021849     0.29300
O631        O  0.49475246  0.44486532  0.47959682    -1.04100
O632        O  0.42506191  0.60156415  0.55242710    -0.81400
O633        O  0.53457606  0.52126192  0.37767901    -0.80900
O634        O  0.54955636  0.57855064  0.59197121    -0.79300
O635        O  0.37079501  0.47370966  0.51563905    -0.82700
O636        O  0.43870290  0.43862576  0.41122969    -0.80500
O637        O  0.61569771  0.54938789  0.48570129    -0.79200
O638        O  0.51340396  0.63056929  0.46095884    -0.80700
O639        O  0.40677338  0.56364600  0.42619849    -0.82600
O640        O  0.56018916  0.61859276  0.50566378    -0.79400
O641        O  0.38599645  0.50056391  0.43711667    -0.82000
O642        O  0.48600369  0.56990889  0.61116960    -0.77800
O643        O  0.60453074  0.50684826  0.43647111    -0.77800
O644        O  0.50241983  0.44643599  0.39195539    -0.77400
O645        O  0.38338786  0.51555889  0.56508533    -0.80900
O646        O  0.43577390  0.61969841  0.48850121    -0.80400
O647        O  0.49467478  0.57219174  0.38858075    -0.78700
Eu648      Eu  0.45171269  0.53500861  0.56207067     2.39800
Eu649      Eu  0.53721677  0.48324554  0.43967391     2.39600
Eu650      Eu  0.55573819  0.55075363  0.52539728     2.38400
Eu651      Eu  0.43166822  0.46779053  0.47680371     2.39900
Eu652      Eu  0.47224562  0.57073758  0.45653883     2.39800
O653        O  0.47376836  0.50625561  0.43667685    -0.93100
O654        O  0.49287814  0.57384201  0.52137615    -0.92000
C655        C  0.42253624  0.62550256  0.52294682     1.02100
C656        C  0.51633227  0.55170781  0.36654499     1.00800
C657        C  0.52128571  0.58036795  0.61726945     1.00200
C658        C  0.36064297  0.49356428  0.54549110     1.02200
C659        C  0.46733188  0.43469524  0.38679910     1.01100
C660        C  0.62619221  0.53053737  0.45543832     0.99900
C661        C  0.54235756  0.64088871  0.48203218     1.00000
C662        C  0.38177208  0.53500909  0.42336684     1.02600
H663        H  0.55282865  0.56452105  0.44369544     0.30000
O664        O  0.53592835  0.54825880  0.46013115    -1.05300
H665        H  0.40541747  0.54250924  0.49712112     0.32000
O666        O  0.43112392  0.53232365  0.49773273    -1.07800
O667        O  0.08041873  0.93640654  0.05372610    -0.80400
O668        O  0.00738003  0.04724000  0.87793840    -0.81900
O669        O  0.04421345  0.91640328  0.93175843    -0.79000
O670        O  0.11300458  0.02243835  0.96116179    -0.77400
O671        O  0.10181634  0.07264366  0.00236366    -0.79100
O672        O  0.98096940  0.89684347  0.94201174    -0.80100
O673        O  0.05560988  0.00435413  0.88942214    -0.81400
O674        O  0.09865150  0.94652097  0.98994139    -0.81700
Eu675      Eu  0.05155456  0.98389097  0.95754712     2.39200
O676        O  0.03183339  0.04907993  0.95938826    -0.89200
O677        O  0.01100571  0.94425877  0.99779675    -0.92800
C678        C  0.10492433  0.93449781  0.02464963     1.01900
C679        C  0.03689409  0.02741159  0.86722632     1.01700
C680        C  0.01587820  0.89084924  0.93081356     1.01600
C681        C  0.12393171  0.05268538  0.98014870     0.99500
H682        H  0.98796527  0.97629013  0.90949235     0.29300
O683        O  0.98803355  0.98583687  0.93565091    -1.01600
H684        H  0.08038167  0.00648047  0.03158738     0.29300
O685        O  0.05440349  0.00647355  0.02183508    -1.04100
O686        O  0.90189072  0.07959650  0.94686596    -0.81400
O687        O  0.97513766  0.96813319  0.12267548    -0.80900
O688        O  0.91784322  0.95530141  0.90936848    -0.79300
O689        O  0.02844287  0.13159404  0.98493156    -0.82700
O690        O  0.05893345  0.06440960  0.09196249    -0.80500
O691        O  0.95016477  0.88621847  0.01792615    -0.79200
O692        O  0.86799252  0.99113508  0.03845672    -0.80700
O693        O  0.93559556  0.09756751  0.07225409    -0.82600
O694        O  0.87914677  0.94241200  0.99562212    -0.79400
O695        O  0.99819359  0.11849090  0.05965857    -0.82000
O696        O  0.92834427  0.01918009  0.89153147    -0.77800
O697        O  0.99241259  0.89832310  0.06713376    -0.77800
O698        O  0.04866341  0.00086773  0.11069606    -0.77400
O699        O  0.98578103  0.11878801  0.93631282    -0.80900
O700        O  0.88259675  0.07013299  0.01057126    -0.80400
O701        O  0.92591555  0.00985093  0.11119033    -0.78700
Eu702      Eu  0.96718727  0.05026186  0.93864862     2.39800
Eu703      Eu  0.01463499  0.96554690  0.06179691     2.39600
Eu704      Eu  0.94703745  0.94612054  0.97582116     2.38400
Eu705      Eu  0.03352963  0.07048574  0.02430580     2.39900
Eu706      Eu  0.92891470  0.03135092  0.04339927     2.39800
O707        O  0.99313294  0.02961374  0.06412640    -0.93100
O708        O  0.92654504  0.01019900  0.97891030    -0.92000
C709        C  0.87776044  0.08324911  0.97591011     1.02100
C710        C  0.94518323  0.98725137  0.13333393     1.00800
C711        C  0.91477984  0.98493770  0.88558909     1.00200
C712        C  0.00760729  0.14180488  0.95574587     1.02200
C713        C  0.05977738  0.03589818  0.11723391     1.01100
C714        C  0.96931359  0.87602450  0.04837321     0.99900
C715        C  0.85707172  0.96150471  0.01840007     1.00000
C716        C  0.96356763  0.12357247  0.07261570     1.02600
H717        H  0.93329641  0.95043244  0.05742932     0.30000
O718        O  0.94979119  0.96694439  0.04082750    -1.05300
H719        H  0.95937482  0.09653379  0.00228798     0.32000
O720        O  0.96940557  0.07072703  0.00259975    -1.07800
C721        C  0.48639315  0.36532989  0.30803728    -0.21600
C722        C  0.47122450  0.38383677  0.27490200    -0.09600
C723        C  0.45111719  0.41847643  0.28004292     0.29200
C724        C  0.44672810  0.43386495  0.31746490    -0.21600
C725        C  0.46155944  0.41451292  0.35012719    -0.09600
C726        C  0.48092417  0.37989062  0.34502651     0.29300
F727        F  0.49647366  0.36114788  0.37588853    -0.20100
H728        H  0.50337810  0.33956473  0.30553020     0.17600
H729        H  0.43305914  0.46153537  0.32077278     0.17600
F730        F  0.43574835  0.43743789  0.24930706    -0.20100
C731        C  0.44656811  0.39238107  0.71458253    -0.21600
C732        C  0.47326982  0.40430914  0.74261041    -0.09600
C733        C  0.49354963  0.43995378  0.73698517     0.29200
C734        C  0.48959180  0.46137176  0.70222578    -0.21600
C735        C  0.46480954  0.44793773  0.67321916    -0.09600
C736        C  0.44276162  0.41363810  0.67998197     0.29300
F737        F  0.42022978  0.39888831  0.65164323    -0.20100
H738        H  0.43029691  0.36518441  0.71844771     0.17600
H739        H  0.50843330  0.48653209  0.69663402     0.17600
F740        F  0.51997910  0.45208036  0.76306709    -0.20100
C741        C  0.99481842  0.80973810  0.05142260    -0.21600
C742        C  0.96651449  0.83572608  0.06326045    -0.09600
C743        C  0.94305479  0.82624820  0.09607217     0.29200
C744        C  0.94944948  0.79229996  0.11780990    -0.21600
C745        C  0.97906984  0.76712444  0.10695990    -0.09600
C746        C  0.00049985  0.77524842  0.07253771     0.29300
F747        F  0.02909609  0.75161622  0.06109514    -0.20100
H748        H  0.01438221  0.81739653  0.02730160     0.17600
H749        H  0.93209818  0.78628985  0.14396309     0.17600
F750        F  0.91580091  0.85105828  0.10852846    -0.20100
C751        C  0.97889022  0.19418094  0.06858484    -0.21600
C752        C  0.95699076  0.16331701  0.08650536    -0.09600
C753        C  0.93373280  0.17094553  0.11920303     0.29200
C754        C  0.93570707  0.20782274  0.13573246    -0.21600
C755        C  0.96072560  0.23746592  0.11981490    -0.09600
C756        C  0.98111377  0.23069363  0.08513891     0.29300
F757        F  0.00615597  0.25793223  0.06920189    -0.20100
H758        H  0.99640439  0.18937259  0.04272213     0.17600
H759        H  0.91900660  0.21269148  0.16208517     0.17600
F760        F  0.91151009  0.14232107  0.13679962    -0.20100
C761        C  0.53917967  0.61550107  0.27923380    -0.21600
C762        C  0.50704643  0.60710626  0.25609656    -0.09600
C763        C  0.48292640  0.57473132  0.26591124     0.29200
C764        C  0.48858515  0.55383375  0.30068935    -0.21600
C765        C  0.51878717  0.56444858  0.32544542    -0.09600
C766        C  0.54513832  0.59430169  0.31360608     0.29300
F767        F  0.57474171  0.60500366  0.33678570    -0.20100
H768        H  0.55842211  0.64003158  0.27177712     0.17600
H769        H  0.46770911  0.53119008  0.30971498     0.17600
F770        F  0.45186514  0.56563850  0.24399855    -0.20100
C771        C  0.55146460  0.63820547  0.70441861    -0.21600
C772        C  0.52660359  0.62088206  0.73347125    -0.09600
C773        C  0.50655391  0.58630425  0.72543169     0.29200
C774        C  0.50714243  0.57244723  0.68771214    -0.21600
C775        C  0.52852532  0.59203051  0.65756092    -0.09600
C776        C  0.55236422  0.62394946  0.66654006     0.29300
F777        F  0.57304428  0.64366739  0.63812943    -0.20100
H778        H  0.56775010  0.66469165  0.71025670     0.17600
H779        H  0.48849498  0.54774137  0.68139791     0.17600
F780        F  0.48268356  0.56849808  0.75255045    -0.20100
C781        C  0.03190480  0.23486798  0.90096166    -0.21600
C782        C  0.99538549  0.25179844  0.90064219    -0.09600
C783        C  0.96501995  0.23542534  0.92371428     0.29200
C784        C  0.97062651  0.20113984  0.94506132    -0.21600
C785        C  0.00648099  0.18282179  0.94351226    -0.09600
C786        C  0.03748227  0.20046213  0.92224708     0.29300
F787        F  0.07173590  0.18238001  0.91882438    -0.20100
H788        H  0.05533427  0.24694837  0.88264280     0.17600
H789        H  0.94616712  0.18729366  0.96061056     0.17600
F790        F  0.92912460  0.25041944  0.92261362    -0.20100
C791        C  0.99809000  0.78365665  0.91706226    -0.21600
C792        C  0.01882647  0.77747810  0.88266887    -0.09600
C793        C  0.04448586  0.80715905  0.86771188     0.29200
C794        C  0.04610717  0.84369522  0.88501527    -0.21600
C795        C  0.02212386  0.85095364  0.91721854    -0.09600
C796        C  0.99949303  0.81989493  0.93410992     0.29300
F797        F  0.97652700  0.82515167  0.96588866    -0.20100
H798        H  0.97844843  0.76133305  0.92927822     0.17600
H799        H  0.06413750  0.86682185  0.87184479     0.17600
F800        F  0.06699824  0.80127023  0.83568132    -0.20100
C801        C  0.03825822  0.39398472  0.90310186    -0.21600
C802        C  0.04807235  0.36996087  0.87214239    -0.09600
C803        C  0.08714709  0.36817771  0.86021809     0.29200
C804        C  0.11574508  0.38915024  0.87970848    -0.21600
C805        C  0.10609641  0.41269678  0.91120212    -0.09600
C806        C  0.06674943  0.41514024  0.92248605     0.29300
F807        F  0.05560037  0.43731153  0.95266766    -0.20100
H808        H  0.00831768  0.39641056  0.91249288     0.17600
H809        H  0.14561150  0.38681438  0.87006207     0.17600
F810        F  0.09805982  0.34509407  0.83071634    -0.20100
C811        C  0.06581937  0.40079795  0.06618703    -0.21600
C812        C  0.10429091  0.39952626  0.07900226    -0.09600
C813        C  0.11313908  0.37163973  0.10783946     0.29200
C814        C  0.08421083  0.34706146  0.12419441    -0.21600
C815        C  0.04540249  0.35007161  0.11343997    -0.09600
C816        C  0.03657093  0.37644405  0.08322717     0.29300
F817        F  0.99956843  0.38056003  0.07166680    -0.20100
H818        H  0.05807776  0.42136954  0.04360123     0.17600
H819        H  0.09210442  0.32650900  0.14673769     0.17600
F820        F  0.14947483  0.36889207  0.12172342    -0.20100
C821        C  0.07709814  0.66277304  0.08754853    -0.21600
C822        C  0.05589365  0.64970063  0.12068881    -0.09600
C823        C  0.06128270  0.61161096  0.13510762     0.29200
C824        C  0.08860838  0.58782093  0.11744071    -0.21600
C825        C  0.11094411  0.60166774  0.08524879    -0.09600
C826        C  0.10458521  0.63909586  0.07012498     0.29300
F827        F  0.12497889  0.65263111  0.03829365    -0.20100
H828        H  0.07309351  0.69170428  0.07574187     0.17600
H829        H  0.09258774  0.55875974  0.12904622     0.17600
F830        F  0.03962596  0.59724860  0.16583860    -0.20100
C831        C  0.12578200  0.62439215  0.87839983    -0.21600
C832        C  0.11669111  0.60670426  0.91471758    -0.09600
C833        C  0.08070024  0.61370962  0.93268742     0.29200
C834        C  0.05393961  0.63664206  0.91381163    -0.21600
C835        C  0.06225726  0.65299297  0.87666223    -0.09600
C836        C  0.09905437  0.64747839  0.85958936     0.29300
F837        F  0.10995327  0.66545065  0.82545771    -0.20100
H838        H  0.15365466  0.62021897  0.86435248     0.17600
H839        H  0.02661729  0.64122966  0.92855926     0.17600
F840        F  0.07160241  0.59924917  0.96887989    -0.20100
C841        C  0.43400477  0.39506356  0.89705011    -0.21600
C842        C  0.42409652  0.37578178  0.86312418    -0.09600
C843        C  0.38508843  0.37269362  0.85276906     0.29200
C844        C  0.35666700  0.39056756  0.87506640    -0.21600
C845        C  0.36662772  0.41153604  0.90827912    -0.09600
C846        C  0.40567129  0.41255433  0.91971448     0.29300
F847        F  0.41670516  0.43034923  0.95270947    -0.20100
H848        H  0.46375294  0.39629226  0.90621624     0.17600
H849        H  0.32695765  0.38874709  0.86566579     0.17600
F850        F  0.37465695  0.35365880  0.82030763    -0.20100
C851        C  0.44280843  0.58798959  0.86985048    -0.21600
C852        C  0.43346103  0.61338900  0.83921114    -0.09600
C853        C  0.39397223  0.61833954  0.83140072     0.29200
C854        C  0.36492338  0.60187892  0.85630509    -0.21600
C855        C  0.37428305  0.57935263  0.88934141    -0.09600
C856        C  0.41376433  0.57120119  0.89467808     0.29300
F857        F  0.42469095  0.54800604  0.92462632    -0.20100
H858        H  0.47278257  0.58265184  0.87596475     0.17600
H859        H  0.33499110  0.60752654  0.85001629     0.17600
F860        F  0.38343911  0.63980730  0.79997561    -0.20100
C861        C  0.38855590  0.61060014  0.16216903    -0.21600
C862        C  0.42434875  0.62330390  0.14594968    -0.09600
C863        C  0.43196943  0.61748681  0.10618103     0.29200
C864        C  0.40454677  0.59839903  0.08336131    -0.21600
C865        C  0.36840544  0.58608308  0.09933898    -0.09600
C866        C  0.36066627  0.59238418  0.13914562     0.29300
F867        F  0.32630432  0.58061765  0.15596646    -0.20100
H868        H  0.38210351  0.61511601  0.19266504     0.17600
H869        H  0.41099181  0.59461428  0.05274187     0.17600
F870        F  0.46502831  0.63204710  0.08883556    -0.20100
C871        C  0.35193365  0.40719873  0.13865306    -0.21600
C872        C  0.36152122  0.41682250  0.09956345    -0.09600
C873        C  0.39890853  0.40909134  0.08516680     0.29200
C874        C  0.42618391  0.39291012  0.10965722    -0.21600
C875        C  0.41679493  0.38437612  0.14875802    -0.09600
C876        C  0.37934676  0.39100254  0.16308866     0.29300
F877        F  0.36919079  0.38121463  0.20044156    -0.20100
H878        H  0.32331502  0.41261161  0.15043852     0.17600
H879        H  0.45445896  0.38613290  0.09786809     0.17600
F880        F  0.40872038  0.41587855  0.04716198    -0.20100
C881        C  0.56795082  0.43958344  0.10607517    -0.21600
C882        C  0.60559360  0.42486421  0.10533000    -0.09600
C883        C  0.61354687  0.39352318  0.13071966     0.29200
C884        C  0.58456182  0.37723213  0.15535991    -0.21600
C885        C  0.54651691  0.39073525  0.15495270    -0.09600
C886        C  0.53869868  0.42279785  0.13055613     0.29300
F887        F  0.50253896  0.43689756  0.12878025    -0.20100
H888        H  0.56093930  0.46394391  0.08734974     0.17600
H889        H  0.59176901  0.35296569  0.17413255     0.17600
F890        F  0.64897699  0.37742623  0.13099219    -0.20100
C891        C  0.54393398  0.60268118  0.11390288    -0.21600
C892        C  0.55287227  0.63603936  0.13503143    -0.09600
C893        C  0.59098377  0.65178275  0.13284307     0.29200
C894        C  0.61944352  0.63365597  0.11087361    -0.21600
C895        C  0.61052454  0.59968977  0.09066318    -0.09600
C896        C  0.57215032  0.58478858  0.09178073     0.29300
F897        F  0.56196845  0.55190470  0.07296520    -0.20100
H898        H  0.51510097  0.58967651  0.11482837     0.17600
H899        H  0.64871078  0.64583515  0.11032879     0.17600
F900        F  0.60153649  0.68324333  0.15359785    -0.20100
C901        C  0.62827258  0.61812101  0.86984711    -0.21600
C902        C  0.61759222  0.59955401  0.90550871    -0.09600
C903        C  0.57856105  0.60056313  0.91841909     0.29200
C904        C  0.55111721  0.61911625  0.89584495    -0.21600
C905        C  0.56182550  0.63672041  0.86006831    -0.09600
C906        C  0.60060946  0.63641196  0.84723033     0.29300
F907        F  0.61145752  0.65284758  0.81232267    -0.20100
H908        H  0.65790675  0.61778744  0.85897269     0.17600
H909        H  0.52136529  0.61960817  0.90626333     0.17600
F910        F  0.56672433  0.58375681  0.95286154    -0.20100
C911        C  0.62145944  0.39770148  0.87620791    -0.21600
C912        C  0.61071725  0.42684594  0.90193237    -0.09600
C913        C  0.57209635  0.43910090  0.90174558     0.29200
C914        C  0.54489786  0.42132039  0.87762687    -0.21600
C915        C  0.55524457  0.39078095  0.85330993    -0.09600
C916        C  0.59441128  0.38013251  0.85204994     0.29300
F917        F  0.60715485  0.35327247  0.82690403    -0.20100
H918        H  0.65105526  0.38817998  0.87472345     0.17600
H919        H  0.51553166  0.43119598  0.87879580     0.17600
F920        F  0.56043473  0.46838270  0.92462062    -0.20100
C921        C  0.88652435  0.34497626  0.10751747    -0.21600
C922        C  0.91701125  0.36271871  0.12731730    -0.09600
C923        C  0.91986649  0.40331060  0.12915473     0.29200
C924        C  0.89272951  0.42602824  0.11058370    -0.21600
C925        C  0.86189125  0.40839439  0.09109991    -0.09600
C926        C  0.85864205  0.36764772  0.08994486     0.29300
F927        F  0.82915747  0.34989990  0.07102948    -0.20100
H928        H  0.88414676  0.31361470  0.10611784     0.17600
H929        H  0.89544004  0.45737565  0.11182682     0.17600
F930        F  0.94922764  0.42085829  0.14839246    -0.20100
C931        C  0.89975565  0.39257094  0.85712857    -0.21600
C932        C  0.91842011  0.36374555  0.87906196    -0.09600
C933        C  0.90991658  0.36010067  0.91919836     0.29200
C934        C  0.88445279  0.38533080  0.93696020    -0.21600
C935        C  0.86599087  0.41365251  0.91496444    -0.09600
C936        C  0.87314932  0.41682424  0.87476165     0.29300
F937        F  0.85472748  0.44347249  0.85270898    -0.20100
H938        H  0.90595694  0.39679519  0.82633607     0.17600
H939        H  0.87811362  0.38194314  0.96785926     0.17600
F940        F  0.92474333  0.33125260  0.94120222    -0.20100
C941        C  0.94388771  0.62670169  0.90379722    -0.21600
C942        C  0.93446025  0.66327253  0.88862374    -0.09600
C943        C  0.89590541  0.67488081  0.89143951     0.29200
C944        C  0.86727460  0.64998144  0.90854575    -0.21600
C945        C  0.87642564  0.61285557  0.92314772    -0.09600
C946        C  0.91543992  0.60187727  0.92130550     0.29300
F947        F  0.92596215  0.56642630  0.93460565    -0.20100
H948        H  0.97291418  0.61630772  0.90012193     0.17600
H949        H  0.83773372  0.65966990  0.90990279     0.17600
F950        F  0.88580819  0.70993213  0.87667291    -0.20100
C951        C  0.88982414  0.64910221  0.13975358    -0.21600
C952        C  0.92851468  0.64688817  0.12703835    -0.09600
C953        C  0.93794324  0.62157867  0.09704246     0.29200
C954        C  0.90897670  0.59932268  0.07975486    -0.21600
C955        C  0.87005968  0.60172006  0.09207033    -0.09600
C956        C  0.86078858  0.62677300  0.12258298     0.29300
F957        F  0.82381735  0.62965589  0.13614507    -0.20100
H958        H  0.88196981  0.66851306  0.16279881     0.17600
H959        H  0.91714278  0.58030052  0.05649534     0.17600
F960        F  0.97525448  0.61737505  0.08512335    -0.20100
C961        C  0.10140043  0.05397016  0.78155885    -0.21600
C962        C  0.09543837  0.02154458  0.75810407    -0.09600
C963        C  0.06538594  0.99462619  0.76777602     0.29200
C964        C  0.04348273  0.99875099  0.80210903    -0.21600
C965        C  0.05096920  0.03004138  0.82667720    -0.09600
C966        C  0.07929732  0.05827337  0.81561132     0.29300
F967        F  0.08774166  0.08816514  0.83935865    -0.20100
H968        H  0.12449482  0.07500070  0.77438504     0.17600
H969        H  0.02239059  0.97619523  0.81085470     0.17600
F970        F  0.05959150  0.96267665  0.74599245    -0.20100
C971        C  0.07468320  0.01645149  0.22417393    -0.21600
C972        C  0.10780887  0.03911555  0.23089297    -0.09600
C973        C  0.12114778  0.06640927  0.20202901     0.29200
C974        C  0.10386696  0.06777048  0.16544773    -0.21600
C975        C  0.07315439  0.04196323  0.15741357    -0.09600
C976        C  0.05745580  0.01777698  0.18795707     0.29300
F977        F  0.02657432  0.99355089  0.18224884    -0.20100
H978        H  0.06362932  0.99568511  0.24606146     0.17600
H979        H  0.11596109  0.08716075  0.14286409     0.17600
F980        F  0.15172884  0.09075120  0.20878683    -0.20100
C981        C  0.18268084  0.53997660  0.23304769    -0.21600
C982        C  0.19295316  0.51082135  0.25975900    -0.09600
C983        C  0.21356146  0.47883125  0.24565684     0.29200
C984        C  0.22432785  0.47691378  0.20639451    -0.21600
C985        C  0.21515124  0.50683263  0.18035223    -0.09600
C986        C  0.19359590  0.53807898  0.19393642     0.29300
F987        F  0.18260540  0.56688380  0.16932176    -0.20100
H988        H  0.16753694  0.56530743  0.24198116     0.17600
H989        H  0.24060272  0.45243514  0.19652878     0.17600
F990        F  0.22489309  0.45014712  0.27024045    -0.20100
C991        C  0.31432208  0.55990398  0.42058972    -0.21600
C992        C  0.34489082  0.53965747  0.40338820    -0.09600
C993        C  0.33659934  0.51372300  0.37369319     0.29200
C994        C  0.29877087  0.50755741  0.36188802    -0.21600
C995        C  0.26794411  0.52810128  0.37816479    -0.09600
C996        C  0.27602522  0.55451205  0.40778869     0.29300
F997        F  0.24726129  0.57518440  0.42400912    -0.20100
H998        H  0.31983943  0.57854422  0.44490884     0.17600
H999        H  0.29359083  0.48640142  0.33959850     0.17600
F1000       F  0.36511390  0.49259087  0.35749213    -0.20100
C1001       C  0.77427095  0.54034535  0.24467098    -0.21600
C1002       C  0.78422539  0.50537679  0.26349360    -0.09600
C1003       C  0.77859372  0.47050983  0.24316619     0.29200
C1004       C  0.76696615  0.47142871  0.20441947    -0.21600
C1005       C  0.75883631  0.50665117  0.18524599    -0.09600
C1006       C  0.76187117  0.54116517  0.20628986     0.29300
F1007       F  0.75252558  0.57587425  0.19017389    -0.20100
H1008       H  0.77561314  0.56743543  0.26004321     0.17600
H1009       H  0.76387161  0.44416227  0.18956036     0.17600
F1010       F  0.78164796  0.43521350  0.26074667    -0.20100
C1011       C  0.70842853  0.55637280  0.38715575    -0.21600
C1012       C  0.73483723  0.52783877  0.39766009    -0.09600
C1013       C  0.72819629  0.50565921  0.43195235     0.29200
C1014       C  0.69372711  0.50946144  0.45333896    -0.21600
C1015       C  0.66596832  0.53558120  0.44081743    -0.09600
C1016       C  0.67402401  0.56013044  0.40849412     0.29300
F1017       F  0.64730171  0.58539680  0.39582383    -0.20100
H1018       H  0.71340916  0.57411489  0.36103988     0.17600
H1019       H  0.68737981  0.48996178  0.47792964     0.17600
F1020       F  0.75296609  0.47763637  0.44249670    -0.20100
C1021       C  0.89232757  0.96088767  0.78096268    -0.21600
C1022       C  0.86859697  0.99207043  0.77141376    -0.09600
C1023       C  0.85896590  0.01855906  0.80023374     0.29200
C1024       C  0.87130128  0.01319103  0.83804550    -0.21600
C1025       C  0.89485598  0.98214462  0.84816513    -0.09600
C1026       C  0.90582650  0.95613396  0.81916723     0.29300
F1027       F  0.93072066  0.92744742  0.82730396    -0.20100
H1028       H  0.89982163  0.94005320  0.75911286     0.17600
H1029       H  0.86360677  0.03447317  0.85943604     0.17600
F1030       F  0.83732600  0.04982638  0.79171437    -0.20100
C1031       C  0.87828426  0.96424335  0.21769008    -0.21600
C1032       C  0.88629625  0.99607516  0.24144993    -0.09600
C1033       C  0.91897345  0.02008217  0.23297553     0.29200
C1034       C  0.94089807  0.01461792  0.19897570    -0.21600
C1035       C  0.93121970  0.98444046  0.17383815    -0.09600
C1036       C  0.90068098  0.95833766  0.18412560     0.29300
F1037       F  0.89050078  0.92926988  0.15999243    -0.20100
H1038       H  0.85348697  0.94507101  0.22417618     0.17600
H1039       H  0.96367751  0.03566157  0.19081791     0.17600
F1040       F  0.92747071  0.05091078  0.25548346    -0.20100
C1041       C  0.19731326  0.54557671  0.76014796    -0.21600
C1042       C  0.19803196  0.51233212  0.73710467    -0.09600
C1043       C  0.21179000  0.47772915  0.75410184     0.29200
C1044       C  0.22309343  0.47631080  0.79297579    -0.21600
C1045       C  0.22164110  0.50938268  0.81598405    -0.09600
C1046       C  0.20866358  0.54420541  0.79890382     0.29300
F1047       F  0.20607206  0.57713315  0.81968179    -0.20100
H1048       H  0.18885057  0.57329960  0.74852258     0.17600
H1049       H  0.23299245  0.44914857  0.80505998     0.17600
F1050       F  0.21457177  0.44506017  0.73300041    -0.20100
C1051       C  0.27394325  0.46917367  0.60887131    -0.21600
C1052       C  0.25146671  0.50191782  0.60238412    -0.09600
C1053       C  0.26212075  0.52847284  0.57228938     0.29200
C1054       C  0.29649508  0.52356604  0.55084234    -0.21600
C1055       C  0.32013769  0.49199695  0.55904123    -0.09600
C1056       C  0.30818006  0.46431075  0.58752382     0.29300
F1057       F  0.33136046  0.43457605  0.59709496    -0.20100
H1058       H  0.26601303  0.44846841  0.63203209     0.17600
H1059       H  0.30601267  0.54572990  0.52964910     0.17600
F1060       F  0.24130971  0.56079564  0.56610083    -0.20100
C1061       C  0.79632525  0.53903246  0.76351454    -0.21600
C1062       C  0.79523941  0.50333409  0.74428020    -0.09600
C1063       C  0.78282582  0.46964297  0.76557408     0.29200
C1064       C  0.77250125  0.47170218  0.80469915    -0.21600
C1065       C  0.77280798  0.50745628  0.82352048    -0.09600
C1066       C  0.78548748  0.54113276  0.80263507     0.29300
F1067       F  0.78645443  0.57641972  0.81944537    -0.20100
H1068       H  0.80333262  0.56606625  0.74823071     0.17600
H1069       H  0.76279672  0.44518083  0.81982098     0.17600
F1070       F  0.77797880  0.43496012  0.74805206    -0.20100
C1071       C  0.68648097  0.51271175  0.64039224    -0.21600
C1072       C  0.71764705  0.49135348  0.62633547    -0.09600
C1073       C  0.71045534  0.46242152  0.59889533     0.29200
C1074       C  0.67274827  0.45611303  0.58497370    -0.21600
C1075       C  0.64193715  0.47808349  0.59901089    -0.09600
C1076       C  0.64915433  0.50583351  0.62739957     0.29300
F1077       F  0.62009988  0.52802792  0.64089872    -0.20100
H1078       H  0.69107484  0.53508990  0.66159490     0.17600
H1079       H  0.66795631  0.43546442  0.56214545     0.17600
F1080       F  0.73960077  0.44008531  0.58605469    -0.20100
C1081       C  0.02076877  0.27172950  0.29523422    -0.21600
C1082       C  0.99503129  0.28703829  0.32232970    -0.09600
C1083       C  0.96808509  0.31424275  0.31010544     0.29200
C1084       C  0.96492859  0.32377266  0.27085454    -0.21600
C1085       C  0.98846248  0.30613651  0.24286184    -0.09600
C1086       C  0.01760997  0.28114756  0.25580106     0.29300
F1087       F  0.04200701  0.26447296  0.23003580    -0.20100
H1088       H  0.04230583  0.25138933  0.30441236     0.17600
H1089       H  0.94326814  0.34426779  0.26321525     0.17600
F1090       F  0.94468117  0.33172476  0.33625434    -0.20100
C1091       C  0.01612521  0.26743094  0.70873896    -0.21600
C1092       C  0.98486436  0.27418240  0.68437858    -0.09600
C1093       C  0.95218389  0.29258199  0.69970463     0.29200
C1094       C  0.95106614  0.30410072  0.73828428    -0.21600
C1095       C  0.98236182  0.29757770  0.76301499    -0.09600
C1096       C  0.01487343  0.27870093  0.74756396     0.29300
F1097       F  0.04557808  0.27097441  0.77019262    -0.20100
H1098       H  0.04165617  0.25339586  0.69773277     0.17600
H1099       H  0.92522398  0.31808686  0.74780562     0.17600
F1100       F  0.92150384  0.30080987  0.67716681    -0.20100
C1101       C  0.83970353  0.40534347  0.37657717    -0.21600
C1102       C  0.84337556  0.44468323  0.38633322    -0.09600
C1103       C  0.87038533  0.45500617  0.41483992     0.29200
C1104       C  0.89419019  0.42700368  0.43133914    -0.21600
C1105       C  0.89158839  0.38791321  0.42033656    -0.09600
C1106       C  0.86338258  0.37737583  0.39306366     0.29300
F1107       F  0.85888422  0.34013570  0.38152793    -0.20100
H1108       H  0.81865836  0.39609161  0.35553841     0.17600
H1109       H  0.91498747  0.43616923  0.45266233     0.17600
F1110       F  0.87522663  0.49225777  0.42597908    -0.20100
C1111       C  0.86337752  0.36886428  0.61940623    -0.21600
C1112       C  0.88761188  0.38012067  0.58747700    -0.09600
C1113       C  0.88606499  0.41854606  0.57277967     0.29200
C1114       C  0.86153333  0.44497486  0.59010763    -0.21600
C1115       C  0.83911950  0.43432884  0.62321953    -0.09600
C1116       C  0.83954216  0.39568820  0.63730450     0.29300
F1117       F  0.81671840  0.38376536  0.66815690    -0.20100
H1118       H  0.86333574  0.33941058  0.63105092     0.17600
H1119       H  0.86101533  0.47419246  0.57813297     0.17600
F1120       F  0.90817294  0.43081974  0.54159289    -0.20100
C1121       C  0.09271387  0.42353871  0.57029288    -0.21600
C1122       C  0.08655939  0.38796754  0.59005848    -0.09600
C1123       C  0.10474788  0.38159326  0.62568506     0.29200
C1124       C  0.12748659  0.41109971  0.64168739    -0.21600
C1125       C  0.13291859  0.44752130  0.62250432    -0.09600
C1126       C  0.11598265  0.45270844  0.58568781     0.29300
F1127       F  0.12124900  0.48545443  0.56367023    -0.20100
H1128       H  0.08008131  0.42862823  0.54211427     0.17600
H1129       H  0.14126829  0.40487175  0.66897054     0.17600
F1130       F  0.10030279  0.34709460  0.64532638    -0.20100
C1131       C  0.09795362  0.43241611  0.43671646    -0.21600
C1132       C  0.09817295  0.39383030  0.42400322    -0.09600
C1133       C  0.12577372  0.38432310  0.39511621     0.29200
C1134       C  0.15071142  0.41287952  0.37832918    -0.21600
C1135       C  0.14905743  0.45182207  0.38938087    -0.09600
C1136       C  0.12328591  0.46105126  0.41988539     0.29300
F1137       F  0.12118271  0.49791700  0.43243314    -0.20100
H1138       H  0.07784409  0.44062288  0.45946383     0.17600
H1139       H  0.17069456  0.40461216  0.35548218     0.17600
F1140       F  0.12800915  0.34764483  0.38175842    -0.20100
C1141       C  0.10469663  0.10821750  0.65956043    -0.21600
C1142       C  0.12004266  0.07629088  0.64085936    -0.09600
C1143       C  0.11642729  0.07262059  0.60062206     0.29200
C1144       C  0.09586615  0.09987857  0.57943821    -0.21600
C1145       C  0.08010628  0.13184972  0.59802775    -0.09600
C1146       C  0.08541652  0.13633407  0.63823149     0.29300
F1147       F  0.07119792  0.16729948  0.65704882    -0.20100
H1148       H  0.10749823  0.11116869  0.69069398     0.17600
H1149       H  0.09289682  0.09645591  0.54839678     0.17600
F1150       F  0.13255900  0.04254152  0.58199977    -0.20100
C1151       C  0.87998473  0.10117547  0.66542283    -0.21600
C1152       C  0.87460814  0.06359770  0.65142164    -0.09600
C1153       C  0.88826474  0.05535612  0.61379052     0.29200
C1154       C  0.90747218  0.08422527  0.59083749    -0.21600
C1155       C  0.91210214  0.12225460  0.60437077    -0.09600
C1156       C  0.89861545  0.13027639  0.64229581     0.29300
F1157       F  0.90325693  0.16626324  0.65709394    -0.20100
H1158       H  0.86905474  0.10813991  0.69411007     0.17600
H1159       H  0.91697949  0.07726434  0.56166390     0.17600
F1160       F  0.88048664  0.02035772  0.59801362    -0.20100
C1161       C  0.90027777  0.09297345  0.41555912    -0.21600
C1162       C  0.90849964  0.13098990  0.40156794    -0.09600
C1163       C  0.89726150  0.14121702  0.36350768     0.29200
C1164       C  0.87875469  0.11389275  0.34012762    -0.21600
C1165       C  0.87073548  0.07605930  0.35418730    -0.09600
C1166       C  0.88089835  0.06600505  0.39242458     0.29300
F1167       F  0.86998627  0.03096770  0.40831675    -0.20100
H1168       H  0.90758094  0.08451667  0.44496495     0.17600
H1169       H  0.87064151  0.12227151  0.31093811     0.17600
F1170       F  0.90459563  0.17750630  0.34854478    -0.20100
C1171       C  0.10465908  0.07141809  0.39345036    -0.21600
C1172       C  0.11718672  0.08188746  0.35566288    -0.09600
C1173       C  0.11212369  0.11975047  0.34142083     0.29200
C1174       C  0.09409553  0.14685599  0.36481466    -0.21600
C1175       C  0.08095962  0.13644416  0.40272448    -0.09600
C1176       C  0.08665551  0.09839709  0.41693565     0.29300
F1177       F  0.07577473  0.08749430  0.45381180    -0.20100
H1178       H  0.10928599  0.04244046  0.40491998     0.17600
H1179       H  0.09007087  0.17587088  0.35312370     0.17600
F1180       F  0.12462915  0.13038177  0.30494668    -0.20100
C1181       C  0.02868595  0.71137743  0.26178523    -0.21600
C1182       C  0.99453504  0.71142174  0.24010300    -0.09600
C1183       C  0.96058752  0.72526771  0.25800649     0.29200
C1184       C  0.96082178  0.73796884  0.29625426    -0.21600
C1185       C  0.99490424  0.73790368  0.31773123    -0.09600
C1186       C  0.02894495  0.72419694  0.30002663     0.29300
F1187       F  0.06270391  0.72284786  0.31950016    -0.20100
H1188       H  0.05593245  0.70282396  0.24927151     0.17600
H1189       H  0.93413541  0.74821396  0.30893060     0.17600
F1190       F  0.92709593  0.72743282  0.23822601    -0.20100
C1191       C  0.02631699  0.73510181  0.69942375    -0.21600
C1192       C  0.99139398  0.73146296  0.67938155    -0.09600
C1193       C  0.95865572  0.71499863  0.69907000     0.29200
C1194       C  0.96046012  0.70411784  0.73829673    -0.21600
C1195       C  0.99495803  0.70938585  0.75898674    -0.09600
C1196       C  0.02818307  0.72421698  0.73855274     0.29300
F1197       F  0.06220629  0.72999507  0.75698934    -0.20100
H1198       H  0.05230253  0.74710945  0.68504802     0.17600
H1199       H  0.93404154  0.69297411  0.75202415     0.17600
F1200       F  0.92463772  0.70949533  0.68063678    -0.20100
C1201       C  0.13073237  0.64714383  0.40011496    -0.21600
C1202       C  0.09246714  0.63701481  0.41222278    -0.09600
C1203       C  0.07880427  0.59855326  0.40700985     0.29200
C1204       C  0.10270006  0.57133093  0.38981672    -0.21600
C1205       C  0.14100964  0.58130577  0.37876125    -0.09600
C1206       C  0.15485975  0.61949283  0.38369821     0.29300
F1207       F  0.19152446  0.63008664  0.37213524    -0.20100
H1208       H  0.14216338  0.67639755  0.40375734     0.17600
H1209       H  0.09100722  0.54250329  0.38447729     0.17600
F1210       F  0.04200448  0.58739089  0.41752555    -0.20100
C1211       C  0.12242239  0.64519029  0.60267983    -0.21600
C1212       C  0.08891352  0.63284011  0.58309167    -0.09600
C1213       C  0.08035183  0.59264573  0.58157898     0.29200
C1214       C  0.10428790  0.56601803  0.59984061    -0.21600
C1215       C  0.13788229  0.57845465  0.61871580    -0.09600
C1216       C  0.14667460  0.61833954  0.62018785     0.29300
F1217       F  0.17891127  0.63128840  0.63833477    -0.20100
H1218       H  0.13018099  0.67576918  0.60427762     0.17600
H1219       H  0.09564849  0.53569756  0.60052851     0.17600
F1220       F  0.04854301  0.57888496  0.56321315    -0.20100
C1221       C  0.85045495  0.63163204  0.59406204    -0.21600
C1222       C  0.88820894  0.62369725  0.58065811    -0.09600
C1223       C  0.90093447  0.58526320  0.58414263     0.29200
C1224       C  0.87691005  0.55609475  0.60160424    -0.21600
C1225       C  0.83938228  0.56418713  0.61484498    -0.09600
C1226       C  0.82626054  0.60219674  0.61083203     0.29300
F1227       F  0.79032160  0.61096445  0.62406241    -0.20100
H1228       H  0.83957318  0.66073337  0.59160634     0.17600
H1229       H  0.88838725  0.52756331  0.60642834     0.17600
F1230       F  0.93718639  0.57608259  0.57227243    -0.20100
C1231       C  0.89257476  0.56815549  0.38009811    -0.21600
C1232       C  0.85453734  0.57545657  0.36957275    -0.09600
C1233       C  0.83919696  0.61208690  0.37549993     0.29200
C1234       C  0.86151615  0.64087541  0.39301725    -0.21600
C1235       C  0.89926640  0.63328344  0.40516055    -0.09600
C1236       C  0.91490273  0.59678508  0.39791305     0.29300
F1237       F  0.95170064  0.58878546  0.40785346    -0.20100
H1238       H  0.90483880  0.54014016  0.37477145     0.17600
H1239       H  0.84876320  0.66870833  0.39819434     0.17600
F1240       F  0.80234018  0.61959756  0.36531259    -0.20100
C1241       C  0.09763760  0.88551215  0.36446277    -0.21600
C1242       C  0.07097137  0.89561505  0.39380639    -0.09600
C1243       C  0.06025208  0.93480553  0.39575739     0.29200
C1244       C  0.07731699  0.96302741  0.37029079    -0.21600
C1245       C  0.10569079  0.95304521  0.34274660    -0.09600
C1246       C  0.11472985  0.91367778  0.33927841     0.29300
F1247       F  0.14057250  0.90234423  0.31179133    -0.20100
H1248       H  0.10599027  0.85567915  0.36125455     0.17600
H1249       H  0.06954606  0.99300757  0.37341092     0.17600
F1250       F  0.03392761  0.94624017  0.42266352    -0.20100
C1251       C  0.86801938  0.88082052  0.38585352    -0.21600
C1252       C  0.90228083  0.89039618  0.40523744    -0.09600
C1253       C  0.91743523  0.92862200  0.40212475     0.29200
C1254       C  0.89877218  0.95635742  0.37989335    -0.21600
C1255       C  0.86407641  0.94718632  0.36094610    -0.09600
C1256       C  0.84897539  0.90881707  0.36402548     0.29300
F1257       F  0.81684443  0.89765769  0.34469895    -0.20100
H1258       H  0.85584894  0.85150129  0.38756536     0.17600
H1259       H  0.91194911  0.98511566  0.37782258     0.17600
F1260       F  0.95087425  0.93917729  0.41962257    -0.20100
C1261       C  0.86558889  0.87158865  0.61675576    -0.21600
C1262       C  0.90141973  0.88116108  0.59860370    -0.09600
C1263       C  0.91963102  0.91713152  0.60601632     0.29200
C1264       C  0.90176942  0.94334374  0.63037835    -0.21600
C1265       C  0.86518902  0.93458007  0.64740075    -0.09600
C1266       C  0.84762465  0.89783368  0.64103827     0.29300
F1267       F  0.81367622  0.88657079  0.65903226    -0.20100
H1268       H  0.85138346  0.84368427  0.61213169     0.17600
H1269       H  0.91660563  0.97077916  0.63520332     0.17600
F1270       F  0.95521315  0.92663450  0.59057756    -0.20100
C1271       C  0.12292893  0.90729446  0.64472161    -0.21600
C1272       C  0.11218693  0.94629267  0.64290083    -0.09600
C1273       C  0.08361570  0.95702123  0.61630455     0.29200
C1274       C  0.06609180  0.92921098  0.59275767    -0.21600
C1275       C  0.07657324  0.89009276  0.59494814    -0.09600
C1276       C  0.10565646  0.87957710  0.62105855     0.29300
F1277       F  0.11781796  0.84252236  0.62377990    -0.20100
H1278       H  0.14471831  0.89800424  0.66481628     0.17600
H1279       H  0.04407529  0.93842861  0.57286510     0.17600
F1280       F  0.07314895  0.99444102  0.61194994    -0.20100
C1281       C  0.22729861  0.81740147  0.47120283    -0.21600
C1282       C  0.24815839  0.80950649  0.50513984    -0.09600
C1283       C  0.22807384  0.79338890  0.53798863     0.29200
C1284       C  0.18879726  0.78427974  0.53637416    -0.21600
C1285       C  0.16866099  0.79053417  0.50191260    -0.09600
C1286       C  0.18802353  0.80806889  0.46958085     0.29300
F1287       F  0.16929167  0.81584011  0.43608273    -0.20100
H1288       H  0.24074378  0.82914639  0.44487021     0.17600
H1289       H  0.17449332  0.77105262  0.56188158     0.17600
F1290       F  0.24693934  0.78433253  0.57108955    -0.20100
C1291       C  0.35445663  0.70360531  0.49699997    -0.21600
C1292       C  0.36907124  0.73586046  0.51694740    -0.09600
C1293       C  0.40076665  0.73084025  0.54153477     0.29200
C1294       C  0.41697799  0.69395588  0.54612591    -0.21600
C1295       C  0.40154415  0.66188562  0.52640712    -0.09600
C1296       C  0.37024225  0.66722595  0.50178628     0.29300
F1297       F  0.35582695  0.63722066  0.48103773    -0.20100
H1298       H  0.33081388  0.70655671  0.47705341     0.17600
H1299       H  0.44220267  0.69069199  0.56396395     0.17600
F1300       F  0.41568504  0.76121542  0.56135464    -0.20100
C1301       C  0.22943597  0.21203917  0.53190673    -0.21600
C1302       C  0.25239022  0.21616433  0.49750432    -0.09600
C1303       C  0.23626304  0.23617715  0.46565446     0.29200
C1304       C  0.19780811  0.24849984  0.46733961    -0.21600
C1305       C  0.17466077  0.24280966  0.50130373    -0.09600
C1306       C  0.19140211  0.22499727  0.53384127     0.29300
F1307       F  0.17097964  0.21948012  0.56774241    -0.20100
H1308       H  0.24081393  0.20000849  0.55835863     0.17600
H1309       H  0.18620269  0.26278867  0.44194301     0.17600
F1310       F  0.25791720  0.24465577  0.43302982    -0.20100
C1311       C  0.37623287  0.29369577  0.54140021    -0.21600
C1312       C  0.38708318  0.26800931  0.51205815    -0.09600
C1313       C  0.42173499  0.27559801  0.49080768     0.29200
C1314       C  0.44318721  0.31008462  0.49664781    -0.21600
C1315       C  0.43034459  0.33703929  0.52379445    -0.09600
C1316       C  0.39732131  0.32817737  0.54685084     0.29300
F1317       F  0.38369666  0.35439460  0.57229200    -0.20100
H1318       H  0.35000247  0.28812887  0.55866481     0.17600
H1319       H  0.46812939  0.31713434  0.47793674     0.17600
F1320       F  0.43281643  0.25173366  0.46201234    -0.20100
C1321       C  0.67396002  0.27527408  0.97242658    -0.21600
C1322       C  0.68874494  0.24821043  0.99901032    -0.09600
C1323       C  0.71119047  0.26229844  0.02998560     0.29200
C1324       C  0.72092639  0.30176990  0.03227727    -0.21600
C1325       C  0.70850042  0.32807426  0.00393328    -0.09600
C1326       C  0.68372265  0.31470833  0.97482205     0.29300
F1327       F  0.66883797  0.33983710  0.94851690    -0.20100
H1328       H  0.65596690  0.26650430  0.94877272     0.17600
H1329       H  0.73939342  0.31154757  0.05540863     0.17600
F1330       F  0.72563987  0.23748145  0.05689340    -0.20100
C1331       C  0.79600777  0.14617341  0.00259918    -0.21600
C1332       C  0.76534124  0.13086992  0.98087428    -0.09600
C1333       C  0.77312573  0.10170294  0.95398555     0.29200
C1334       C  0.81102693  0.08815517  0.94940897    -0.21600
C1335       C  0.84138415  0.10384217  0.97133622    -0.09600
C1336       C  0.83347584  0.13330043  0.99761248     0.29300
F1337       F  0.86194654  0.14851130  0.01985857    -0.20100
H1338       H  0.79093252  0.16832925  0.02384584     0.17600
H1339       H  0.81634788  0.06438685  0.93008272     0.17600
F1340       F  0.74445445  0.08664577  0.93202979    -0.20100
C1341       C  0.27798894  0.26494985  0.03701548    -0.21600
C1342       C  0.28476329  0.24544453  0.00204405    -0.09600
C1343       C  0.27549404  0.26471329  0.96687022     0.29200
C1344       C  0.26231671  0.30275540  0.96681138    -0.21600
C1345       C  0.25663459  0.32247236  0.00174219    -0.09600
C1346       C  0.26434663  0.30277018  0.03699636     0.29300
F1347       F  0.25856487  0.31971730  0.07181911    -0.20100
H1348       H  0.28173070  0.25081730  0.06493183     0.17600
H1349       H  0.25642665  0.31671237  0.93913254     0.17600
F1350       F  0.27824205  0.24658256  0.93232012    -0.20100
C1351       C  0.22683105  0.07612731  0.00745518    -0.21600
C1352       C  0.23376031  0.11033169  0.98522480    -0.09600
C1353       C  0.20770181  0.12004784  0.95580090     0.29200
C1354       C  0.17328547  0.09849517  0.95179232    -0.21600
C1355       C  0.16450351  0.06661490  0.97653374    -0.09600
C1356       C  0.19220866  0.05440214  0.00332156     0.29300
F1357       F  0.18442895  0.02350654  0.02761612    -0.20100
H1358       H  0.24670582  0.06790803  0.02994081     0.17600
H1359       H  0.15227525  0.10824692  0.93103245     0.17600
F1360       F  0.21458023  0.15166931  0.93218052    -0.20100
C1361       C  0.75192415  0.80109482  0.53681927    -0.21600
C1362       C  0.73210621  0.80784302  0.50206852    -0.09600
C1363       C  0.75141072  0.79984832  0.46659514     0.29200
C1364       C  0.78982312  0.78799656  0.46606880    -0.21600
C1365       C  0.80974206  0.78212384  0.50081876    -0.09600
C1366       C  0.79003716  0.78854206  0.53635003     0.29300
F1367       F  0.80720279  0.78236509  0.57100212    -0.20100
H1368       H  0.73776763  0.80397367  0.56484698     0.17600
H1369       H  0.80376699  0.78287600  0.43823006     0.17600
F1370       F  0.73285401  0.80222049  0.43225942    -0.20100
C1371       C  0.57178016  0.73937771  0.51656266    -0.21600
C1372       C  0.59953645  0.75080796  0.48808427    -0.09600
C1373       C  0.60429873  0.72834059  0.45473170     0.29200
C1374       C  0.58259914  0.69383893  0.45087981    -0.21600
C1375       C  0.55651939  0.68126322  0.48051631    -0.09600
C1376       C  0.55086692  0.70438573  0.51319866     0.29300
F1377       F  0.52717452  0.69166012  0.54307580    -0.20100
H1378       H  0.56828540  0.75616623  0.54261789     0.17600
H1379       H  0.58800195  0.67569699  0.42611551     0.17600
F1380       F  0.63115942  0.73893455  0.42683568    -0.20100
C1381       C  0.71581546  0.70858021  0.96367578    -0.21600
C1382       C  0.72579629  0.69091022  0.99922635    -0.09600
C1383       C  0.72454884  0.71321841  0.03294332     0.29200
C1384       C  0.71181108  0.75134513  0.03116173    -0.21600
C1385       C  0.69965225  0.76857146  0.99599696    -0.09600
C1386       C  0.70337579  0.74686068  0.96178495     0.29300
F1387       F  0.69698136  0.76235084  0.92607329    -0.20100
H1388       H  0.71728182  0.69262570  0.93692090     0.17600
H1389       H  0.71156404  0.76772970  0.05768560     0.17600
F1390       F  0.73570670  0.69846709  0.06774002    -0.20100
C1391       C  0.75829111  0.93063017  0.98481286    -0.21600
C1392       C  0.74642174  0.90444250  0.01469483    -0.09600
C1393       C  0.76853068  0.90166980  0.04847965     0.29200
C1394       C  0.80316447  0.92347429  0.05138800    -0.21600
C1395       C  0.81633734  0.94778638  0.02039562    -0.09600
C1396       C  0.79331361  0.95178220  0.98734296     0.29300
F1397       F  0.80613349  0.97402516  0.95638357    -0.20100
H1398       H  0.74191507  0.93250709  0.95833777     0.17600
H1399       H  0.82103160  0.91928349  0.07657153     0.17600
F1400       F  0.75771514  0.87613354  0.07757420    -0.20100
C1401       C  0.25839292  0.71082976  0.96612585    -0.21600
C1402       C  0.26791321  0.68524315  0.99641498    -0.09600
C1403       C  0.28878541  0.69947746  0.02797198     0.29200
C1404       C  0.29840632  0.73878533  0.03002819    -0.21600
C1405       C  0.28752562  0.76514410  0.00068617    -0.09600
C1406       C  0.26755223  0.75045966  0.96840456     0.29300
F1407       F  0.25528284  0.77470290  0.93984885    -0.20100
H1408       H  0.24246186  0.70041552  0.94144434     0.17600
H1409       H  0.31280046  0.74794225  0.05586075     0.17600
F1410       F  0.29982000  0.67541786  0.05726423    -0.20100
C1411       C  0.17423911  0.93707512  0.00540484    -0.21600
C1412       C  0.14449729  0.92018100  0.02955204    -0.09600
C1413       C  0.15279378  0.88808703  0.05328120     0.29200
C1414       C  0.18943800  0.87164966  0.05048107    -0.21600
C1415       C  0.21810819  0.88721225  0.02419534    -0.09600
C1416       C  0.21055598  0.92087164  0.00266374     0.29300
F1417       F  0.23691387  0.93615686  0.97635526    -0.20100
H1418       H  0.16873830  0.96201448  0.98682165     0.17600
H1419       H  0.19495621  0.84579499  0.06771460     0.17600
F1420       F  0.12491871  0.87100866  0.07675439    -0.20100
C1421       C  0.26025721  0.03992378  0.30931325    -0.21600
C1422       C  0.23248880  0.01332203  0.29550563    -0.09600
C1423       C  0.24530123  0.98219951  0.27279038     0.29200
C1424       C  0.28458197  0.97824640  0.26399367    -0.21600
C1425       C  0.31171787  0.00571099  0.27672972    -0.09600
C1426       C  0.29931197  0.03631593  0.29994121     0.29300
F1427       F  0.32499361  0.06302712  0.31363696    -0.20100
H1428       H  0.25246757  0.06449196  0.32631604     0.17600
H1429       H  0.29361236  0.95456651  0.24601387     0.17600
F1430       F  0.21960558  0.95615779  0.25804497    -0.20100
C1431       C  0.69339105  0.04532442  0.27101732    -0.21600
C1432       C  0.67370054  0.00953204  0.26579895    -0.09600
C1433       C  0.69413217  0.97527968  0.27253721     0.29200
C1434       C  0.73236694  0.97700402  0.28530102    -0.21600
C1435       C  0.75156880  0.01267904  0.29260929    -0.09600
C1436       C  0.73177079  0.04706666  0.28364300     0.29300
F1437       F  0.74941755  0.08259654  0.28551292    -0.20100
H1438       H  0.67904342  0.07235756  0.26539692     0.17600
H1439       H  0.74720858  0.94997089  0.28899842     0.17600
F1440       F  0.67741195  0.93982008  0.26681273    -0.20100
C1441       C  0.38272098  0.87506466  0.37418595    -0.21600
C1442       C  0.41147711  0.90255389  0.38406093    -0.09600
C1443       C  0.42433103  0.90290123  0.42277503     0.29200
C1444       C  0.40684088  0.87794370  0.45112748    -0.21600
C1445       C  0.37640652  0.85239437  0.44141462    -0.09600
C1446       C  0.36561974  0.85012211  0.40227147     0.29300
F1447       F  0.33783651  0.82423932  0.39113613    -0.20100
H1448       H  0.37277684  0.87310160  0.34461699     0.17600
H1449       H  0.41596007  0.87987991  0.48095132     0.17600
F1450       F  0.45336687  0.92750364  0.43348802    -0.20100
C1451       C  0.63363773  0.87616510  0.40170953    -0.21600
C1452       C  0.61723775  0.87300093  0.43945312    -0.09600
C1453       C  0.58210267  0.89158450  0.44713283     0.29200
C1454       C  0.56407478  0.91245691  0.41772172    -0.21600
C1455       C  0.58040233  0.91533467  0.38003602    -0.09600
C1456       C  0.61559938  0.89712323  0.37234207     0.29300
F1457       F  0.63298098  0.89995216  0.33660338    -0.20100
H1458       H  0.66023279  0.86180197  0.39452957     0.17600
H1459       H  0.53698305  0.92616769  0.42446534     0.17600
F1460       F  0.56516905  0.89054933  0.48303399    -0.20100
C1461       C  0.39039182  0.14072175  0.36455166    -0.21600
C1462       C  0.40567463  0.10488120  0.37645030    -0.09600
C1463       C  0.40181027  0.09382643  0.41611231     0.29200
C1464       C  0.38319961  0.11792396  0.44262024    -0.21600
C1465       C  0.36890301  0.15397501  0.43079738    -0.09600
C1466       C  0.37223209  0.16494864  0.39131300     0.29300
F1467       F  0.35818094  0.19924263  0.37864474    -0.20100
H1468       H  0.39272301  0.15028534  0.33437759     0.17600
H1469       H  0.37883408  0.10771943  0.47230342     0.17600
F1470       F  0.41498459  0.05931299  0.42929535    -0.20100
C1471       C  0.45383837  0.23789601  0.18899954    -0.21600
C1472       C  0.48347444  0.26409091  0.19955978    -0.09600
C1473       C  0.51587640  0.24947645  0.21903263     0.29200
C1474       C  0.51827209  0.21002499  0.22779351    -0.21600
C1475       C  0.48806666  0.18436690  0.21842198    -0.09600
C1476       C  0.45586422  0.19856575  0.19863300     0.29300
F1477       F  0.42590167  0.17459049  0.18896933    -0.20100
H1478       H  0.42805240  0.24738428  0.17493972     0.17600
H1479       H  0.54312350  0.19977732  0.24329153     0.17600
F1480       F  0.54451948  0.27373107  0.23137205    -0.20100
C1481       C  0.45288087  0.76469967  0.20915889    -0.21600
C1482       C  0.48680871  0.74300077  0.20900140    -0.09600
C1483       C  0.52108508  0.76114241  0.22252615     0.29200
C1484       C  0.52166837  0.80006460  0.23364339    -0.21600
C1485       C  0.48793701  0.82191344  0.23277219    -0.09600
C1486       C  0.45330130  0.80336682  0.22088800     0.29300
F1487       F  0.41956262  0.82259010  0.21990061    -0.20100
H1488       H  0.42540832  0.75207307  0.20099743     0.17600
H1489       H  0.54872417  0.81308058  0.24298285     0.17600
F1490       F  0.55426740  0.74111818  0.22512669    -0.20100
C1491       C  0.59440706  0.07187708  0.07416027    -0.21600
C1492       C  0.59538471  0.08411231  0.11295400    -0.09600
C1493       C  0.62387211  0.11213244  0.12294721     0.29200
C1494       C  0.64937781  0.12822661  0.09481083    -0.21600
C1495       C  0.64694178  0.11789326  0.05574535    -0.09600
C1496       C  0.61995102  0.08852873  0.04574659     0.29300
F1497       F  0.61671240  0.07724488  0.00842365    -0.20100
H1498       H  0.57341943  0.04990721  0.06559542     0.17600
H1499       H  0.67016491  0.15038925  0.10340505     0.17600
F1500       F  0.62647499  0.12545033  0.15968206    -0.20100
C1501       C  0.61102883  0.88702294  0.13139068    -0.21600
C1502       C  0.57854648  0.90823205  0.12046795    -0.09600
C1503       C  0.56748602  0.90807563  0.08119676     0.29200
C1504       C  0.59028389  0.88971393  0.05346981    -0.21600
C1505       C  0.62431549  0.87155072  0.06420559    -0.09600
C1506       C  0.63359559  0.86866521  0.10356022     0.29300
F1507       F  0.66532090  0.84939218  0.11489491    -0.20100
H1508       H  0.61986596  0.88558911  0.16139584     0.17600
H1509       H  0.58132270  0.88960173  0.02355429     0.17600
F1510       F  0.53499731  0.92577465  0.06936152    -0.20100
C1511       C  0.38059412  0.89290171  0.06007160    -0.21600
C1512       C  0.34230676  0.88249876  0.07033834    -0.09600
C1513       C  0.32791371  0.88941668  0.10779941     0.29200
C1514       C  0.35222396  0.90593356  0.13522473    -0.21600
C1515       C  0.39084959  0.91648265  0.12517690    -0.09600
C1516       C  0.40467219  0.91034544  0.08701726     0.29300
F1517       F  0.44154497  0.92053049  0.07583083    -0.20100
H1518       H  0.39190256  0.88720570  0.03120653     0.17600
H1519       H  0.34065433  0.91109829  0.16410653     0.17600
F1520       F  0.29047574  0.88019075  0.11771083    -0.20100
C1521       C  0.40094047  0.12722421  0.11056509    -0.21600
C1522       C  0.39439109  0.08775700  0.11914162    -0.09600
C1523       C  0.36381925  0.06769318  0.10139535     0.29200
C1524       C  0.33984305  0.08728994  0.07557267    -0.21600
C1525       C  0.34597405  0.12716419  0.06711393    -0.09600
C1526       C  0.37718669  0.14689283  0.08487906     0.29300
F1527       F  0.38593244  0.18484955  0.07666557    -0.20100
H1528       H  0.42485698  0.14280797  0.12355795     0.17600
H1529       H  0.31617379  0.07131210  0.06259182     0.17600
F1530       F  0.35671358  0.02942096  0.10966271    -0.20100
C1531       C  0.75041409  0.21126584  0.53116898    -0.21600
C1532       C  0.73190190  0.20982894  0.49508296    -0.09600
C1533       C  0.75337589  0.22156109  0.46132483     0.29200
C1534       C  0.79222453  0.23305359  0.46360837    -0.21600
C1535       C  0.81070760  0.23404604  0.49960345    -0.09600
C1536       C  0.78918995  0.22318561  0.53349818     0.29300
F1537       F  0.80516398  0.22461359  0.56918539    -0.20100
H1538       H  0.73490136  0.20516220  0.55823875     0.17600
H1539       H  0.80769701  0.24160266  0.43694209     0.17600
F1540       F  0.73636760  0.22360956  0.42612225    -0.20100
C1541       C  0.57947114  0.13547596  0.43384988    -0.21600
C1542       C  0.61487211  0.15491306  0.42502893    -0.09600
C1543       C  0.63078979  0.15288478  0.38714358     0.29200
C1544       C  0.61281576  0.12962164  0.35963372    -0.21600
C1545       C  0.57855180  0.10831314  0.36931614    -0.09600
C1546       C  0.56152144  0.11225985  0.40649111     0.29300
F1547       F  0.52719581  0.09414497  0.41638893    -0.20100
H1548       H  0.56573284  0.13759043  0.46219614     0.17600
H1549       H  0.62594693  0.12801419  0.33085949     0.17600
F1550       F  0.66305106  0.17416285  0.37633756    -0.20100
C1551       C  0.57844654  0.28530112  0.49855175    -0.21600
C1552       C  0.60966821  0.27731682  0.47412053    -0.09600
C1553       C  0.62358979  0.30598038  0.44690836     0.29200
C1554       C  0.60831937  0.34328474  0.44666933    -0.21600
C1555       C  0.57916952  0.35227403  0.47363359    -0.09600
C1556       C  0.56336003  0.32227249  0.49856164     0.29300
F1557       F  0.53401885  0.32885067  0.52422783    -0.20100
H1558       H  0.56731772  0.26362926  0.51951829     0.17600
H1559       H  0.62040805  0.36543336  0.42677466     0.17600
F1560       F  0.65272297  0.29815272  0.42141927    -0.20100
C1561       C  0.24957989  0.97399471  0.71139543    -0.21600
C1562       C  0.23027687  0.00922407  0.70700373    -0.09600
C1563       C  0.24961602  0.04363181  0.71856656     0.29200
C1564       C  0.28784582  0.04300687  0.73097554    -0.21600
C1565       C  0.30752296  0.00799141  0.73382049    -0.09600
C1566       C  0.28756476  0.97325223  0.72447669     0.29300
F1567       F  0.30453094  0.93829651  0.72773170    -0.20100
H1568       H  0.23521511  0.94647171  0.70594714     0.17600
H1569       H  0.30197259  0.07017810  0.73855817     0.17600
F1570       F  0.23141989  0.07801938  0.71872694    -0.20100
C1571       C  0.72134835  0.97365890  0.69116328    -0.21600
C1572       C  0.74720111  0.00422963  0.70047542    -0.09600
C1573       C  0.73256960  0.03614428  0.72065492     0.29200
C1574       C  0.69343464  0.03731259  0.73095084    -0.21600
C1575       C  0.66815906  0.00648552  0.72205879    -0.09600
C1576       C  0.68232672  0.97480766  0.70160562     0.29300
F1577       F  0.65848760  0.94487365  0.69135068    -0.20100
H1578       H  0.73073219  0.94780164  0.67716627     0.17600
H1579       H  0.68309066  0.06192023  0.74682623     0.17600
F1580       F  0.75652868  0.06541427  0.73218191    -0.20100
C1581       C  0.37181846  0.12614498  0.62843064    -0.21600
C1582       C  0.40380960  0.10369800  0.61869787    -0.09600
C1583       C  0.41749715  0.10443279  0.57979615     0.29200
C1584       C  0.39962461  0.12725861  0.55171764    -0.21600
C1585       C  0.36681489  0.14866351  0.56112221    -0.09600
C1586       C  0.35342578  0.14826258  0.60010306     0.29300
F1587       F  0.32359769  0.17050861  0.61138313    -0.20100
H1588       H  0.36083299  0.12658854  0.65813399     0.17600
H1589       H  0.41182487  0.12797883  0.52259357     0.17600
F1590       F  0.44864970  0.08380206  0.56879076    -0.20100
C1591       C  0.58301215  0.14755263  0.62139403    -0.21600
C1592       C  0.57021463  0.10967751  0.61236952    -0.09600
C1593       C  0.57377709  0.09781111  0.57348111     0.29200
C1594       C  0.59056060  0.12301312  0.54490072    -0.21600
C1595       C  0.60361092  0.16054495  0.55424112    -0.09600
C1596       C  0.59963300  0.17264082  0.59274975     0.29300
F1597       F  0.61287027  0.20840524  0.60285576    -0.20100
H1598       H  0.58047230  0.15778161  0.65086487     0.17600
H1599       H  0.59535392  0.11234932  0.51591767     0.17600
F1600       F  0.56293939  0.06130091  0.56332700    -0.20100
C1601       C  0.60447827  0.90045306  0.55940697    -0.21600
C1602       C  0.61190235  0.86154156  0.56856046    -0.09600
C1603       C  0.59958585  0.84580269  0.60479778     0.29200
C1604       C  0.58010485  0.86889911  0.63149563    -0.21600
C1605       C  0.57207771  0.90786406  0.62219146    -0.09600
C1606       C  0.58430191  0.92335174  0.58564985     0.29300
F1607       F  0.57792969  0.96094212  0.57575912    -0.20100
H1608       H  0.61467534  0.91323712  0.53190375     0.17600
H1609       H  0.57096839  0.85619993  0.65939795     0.17600
F1610       F  0.60615735  0.80813545  0.61419897    -0.20100
C1611       C  0.38389528  0.87283960  0.63765252    -0.21600
C1612       C  0.39747630  0.91055785  0.62709518    -0.09600
C1613       C  0.39388575  0.92376625  0.58826818     0.29200
C1614       C  0.37816936  0.89919753  0.56060879    -0.21600
C1615       C  0.36580678  0.86136033  0.57115819    -0.09600
C1616       C  0.36808790  0.84841722  0.60988306     0.29300
F1617       F  0.35501176  0.81219512  0.62072838    -0.20100
H1618       H  0.38620364  0.86191903  0.66725430     0.17600
H1619       H  0.37492523  0.90993747  0.53105917     0.17600
F1620       F  0.40489525  0.96054218  0.57709904    -0.20100
C1621       C  0.52710034  0.24788720  0.79378283    -0.21600
C1622       C  0.49315824  0.26959579  0.79174506    -0.09600
C1623       C  0.46020199  0.25186746  0.77519691     0.29200
C1624       C  0.46080356  0.21349314  0.76276319    -0.21600
C1625       C  0.49441123  0.19166713  0.76569977    -0.09600
C1626       C  0.52779225  0.20959851  0.78101945     0.29300
F1627       F  0.56112560  0.19000724  0.78463203    -0.20100
H1628       H  0.55378574  0.26011220  0.80444145     0.17600
H1629       H  0.43468586  0.20081034  0.75087558     0.17600
F1630       F  0.42726802  0.27192423  0.77059529    -0.20100
C1631       C  0.45606807  0.76486805  0.79778373    -0.21600
C1632       C  0.49127085  0.74549379  0.79282772    -0.09600
C1633       C  0.52354834  0.76711173  0.77740089     0.29200
C1634       C  0.52061654  0.80627997  0.76727020    -0.21600
C1635       C  0.48559512  0.82554776  0.77234018    -0.09600
C1636       C  0.45320635  0.80427235  0.78770473     0.29300
F1637       F  0.41878884  0.82147264  0.79372201    -0.20100
H1638       H  0.43020129  0.75027351  0.80921566     0.17600
H1639       H  0.54617394  0.82155922  0.75539588     0.17600
F1640       F  0.55800806  0.75002544  0.77106804    -0.20100
C1641       C  0.37349004  0.12703360  0.87026756    -0.21600
C1642       C  0.39885887  0.09750213  0.88060917    -0.09600
C1643       C  0.40163653  0.08662236  0.92026461     0.29200
C1644       C  0.37919568  0.10471199  0.94844973    -0.21600
C1645       C  0.35404255  0.13419379  0.93790526    -0.09600
C1646       C  0.35134027  0.14523679  0.89853502     0.29300
F1647       F  0.32619287  0.17259554  0.88713808    -0.20100
H1648       H  0.37048622  0.13600128  0.84013550     0.17600
H1649       H  0.38171879  0.09584350  0.97868617     0.17600
F1650       F  0.42552343  0.05821714  0.93199508    -0.20100
C1651       C  0.35379399  0.90611264  0.87533432    -0.21600
C1652       C  0.38292645  0.93290813  0.88621082    -0.09600
C1653       C  0.38479258  0.94277836  0.92584047     0.29200
C1654       C  0.35984020  0.92408919  0.95369557    -0.21600
C1655       C  0.33285798  0.89520088  0.94270441    -0.09600
C1656       C  0.32920619  0.88756625  0.90300936     0.29300
F1657       F  0.30208828  0.86153730  0.89086880    -0.20100
H1658       H  0.35048192  0.89844540  0.84520186     0.17600
H1659       H  0.36275965  0.93111292  0.98402113     0.17600
F1660       F  0.41095601  0.96983351  0.93791542    -0.20100
C1661       C  0.59102120  0.93935719  0.91547518    -0.21600
C1662       C  0.59140840  0.92681292  0.87692096    -0.09600
C1663       C  0.61719295  0.89744484  0.86675291     0.29200
C1664       C  0.63987098  0.87972785  0.89498234    -0.21600
C1665       C  0.63805587  0.89077579  0.93413912    -0.09600
C1666       C  0.61421915  0.92215009  0.94358304     0.29300
F1667       F  0.61213659  0.93633636  0.97988394    -0.20100
H1668       H  0.57252961  0.96266620  0.92413953     0.17600
H1669       H  0.65896576  0.85712135  0.88588329     0.17600
F1670       F  0.62029778  0.88515003  0.82962345    -0.20100
C1671       C  0.65643189  0.11551660  0.89324394    -0.21600
C1672       C  0.63937392  0.12820169  0.92780834    -0.09600
C1673       C  0.59944331  0.12242601  0.93459470     0.29200
C1674       C  0.57684692  0.10392254  0.90708769    -0.21600
C1675       C  0.59349220  0.09207010  0.87187109    -0.09600
C1676       C  0.63363264  0.09779164  0.86514871     0.29300
F1677       F  0.65085328  0.08584409  0.83182441    -0.20100
H1678       H  0.68722767  0.12007262  0.88774286     0.17600
H1679       H  0.54601804  0.09990974  0.91282961     0.17600
F1680       F  0.58221293  0.13514994  0.96759376    -0.20100
loop_ 
_geom_bond_atom_site_label_1 
_geom_bond_atom_site_label_2 
_geom_bond_distance 
_geom_bond_site_symmetry_2 
_ccdc_geom_bond_type 
O1           C12   1.290       .  A
O1          Eu37   2.444       .  S
O2           C13   1.293       .  A
O2          Eu36   2.470       .  S
O3           C14   1.291       .  A
O3           Eu9   2.449       .  S
O4           C15   1.293       .  A
O4           Eu9   2.469       .  S
O5           C15   1.293       .  A
O5          Eu39   2.468       .  S
O6           C14   1.288   1_565  A
O6          Eu38   2.435       .  S
O7           C13   1.293       .  A
O7           Eu9   2.466       .  S
O8           C12   1.291       .  A
O8           Eu9   2.458       .  S
Eu9          O19   2.355       .  S
Eu9          O11   2.351       .  S
Eu9          O10   2.345       .  S
Eu9          O17   2.358       .  S
O10         Eu39   2.350       .  S
O10         Eu36   2.360       .  S
O11         Eu37   2.347       .  S
O11         Eu38   2.338   1_545  S
C12        C1675   1.472       .  S
C13        C1592   1.491       .  S
C14        C1575   1.466       .  S
C15        C1625   1.491       .  S
H16          O17   0.965       .  S
O17         Eu38   2.360   1_545  S
O17         Eu36   2.328       .  S
H18          O19   0.966       .  S
O19         Eu37   2.353       .  S
O19         Eu39   2.357       .  S
O20          C43   1.290       .  A
O20         Eu36   2.447   1_565  S
O21          C44   1.294       .  A
O21         Eu37   2.476   1_565  S
O22          C45   1.289       .  A
O22         Eu38   2.446       .  S
O23          C46   1.293       .  A
O23         Eu39   2.464       .  S
O24          C47   1.293       .  A
O24         Eu39   2.461       .  S
O25          C48   1.289       .  A
O25         Eu38   2.449       .  S
O26          C49   1.294       .  A
O26         Eu40   2.476       .  S
O27          C50   1.290   1_565  A
O27         Eu40   2.449       .  S
O28          C49   1.290       .  A
O28         Eu38   2.444       .  S
O29          C50   1.294       .  A
O29         Eu39   2.469       .  S
O30          C45   1.295       .  A
O30         Eu36   2.483   1_565  S
O31          C48   1.296       .  A
O31         Eu37   2.480   1_565  S
O32          C47   1.289       .  A
O32         Eu37   2.443       .  S
O33          C46   1.291       .  A
O33         Eu36   2.452       .  S
O34          C43   1.292       .  A
O34         Eu40   2.455       .  S
O35          C44   1.293       .  A
O35         Eu40   2.462       .  S
Eu36         O54   2.344       .  S
Eu36         O42   2.359   1_545  S
Eu37         O41   2.354       .  S
Eu37         O52   2.343   1_545  S
Eu38         O52   2.359       .  S
Eu38         O42   2.339       .  S
Eu39         O41   2.350       .  S
Eu39         O54   2.353       .  S
Eu40         O41   2.345   1_565  S
Eu40         O52   2.357       .  S
Eu40         O54   2.360   1_565  S
Eu40         O42   2.351       .  S
C43        C1612   1.478       .  S
C44        C1652   1.497       .  S
C45        C1605   1.485       .  S
C46        C1582   1.485       .  S
C47        C1642   1.483       .  S
C48        C1662   1.494       .  S
C49        C1635   1.488       .  S
C50        C1565   1.487       .  S
H51          O52   0.966       .  S
H53          O54   0.965       .  S
C55          C56   1.540       .  S
C55          C61   1.523       .  S
C55          C59   1.541       .  S
C55        C1532   1.519       .  S
C56          H63   1.084       .  S
C56          C57   1.362       .  D
C57          C58   1.544       .  S
C57        C1595   1.483       .  S
C58          C62   1.544       .  S
C58          C60   1.539       .  S
C58          H64   1.110       .  S
C59          H65   1.085       .  S
C59          C60   1.371       .  D
C60        C1542   1.481       .  S
C61          H66   1.087       .  S
C61          C62   1.355       .  D
C62        C1552   1.476       .  S
O67          C78   1.292       .  A
O67        Eu103   2.458       .  S
O68          C79   1.295       .  A
O68        Eu102   2.478       .  S
O69          C80   1.293       .  A
O69         Eu75   2.463       .  S
O70          C81   1.294       .  A
O70         Eu75   2.477       .  S
O71          C81   1.283       .  A
O71        Eu105   2.404       .  S
O72          C80   1.295   1_565  A
O72        Eu104   2.478       .  S
O73          C79   1.289       .  A
O73         Eu75   2.441       .  S
O74          C78   1.290       .  A
O74         Eu75   2.444       .  S
Eu75         O85   2.350       .  S
Eu75         O77   2.351       .  S
Eu75         O76   2.346       .  S
Eu75         O83   2.355       .  S
O76        Eu105   2.354       .  S
O76        Eu102   2.347       .  S
O77        Eu103   2.350       .  S
O77        Eu104   2.350   1_545  S
C78        C1545   1.476       .  S
C79        C1492   1.490       .  S
C80        C1432   1.499       .  S
C81        C1475   1.469       .  S
H82          O83   0.965       .  S
O83        Eu104   2.348   1_545  S
O83        Eu102   2.365       .  S
H84          O85   0.966       .  S
O85        Eu103   2.358       .  S
O85        Eu105   2.335       .  S
O86         C109   1.290       .  A
O86        Eu102   2.447   1_565  S
O87         C110   1.292       .  A
O87        Eu103   2.464   1_565  S
O88         C111   1.291       .  A
O88        Eu104   2.450       .  S
O89         C112   1.290       .  A
O89        Eu105   2.458       .  S
O90         C113   1.293       .  A
O90        Eu105   2.473       .  S
O91         C114   1.291       .  A
O91        Eu104   2.454       .  S
O92         C115   1.291       .  A
O92        Eu106   2.456       .  S
O93         C116   1.293   1_565  A
O93        Eu106   2.469       .  S
O94         C115   1.295       .  A
O94        Eu104   2.478       .  S
O95         C116   1.284       .  A
O95        Eu105   2.412       .  S
O96         C111   1.291       .  A
O96        Eu102   2.457   1_565  S
O97         C114   1.292       .  A
O97        Eu103   2.456   1_565  S
O98         C113   1.296       .  A
O98        Eu103   2.488       .  S
O99         C112   1.292       .  A
O99        Eu102   2.469       .  S
O100        C109   1.292       .  A
O100       Eu106   2.457       .  S
O101        C110   1.292       .  A
O101       Eu106   2.451       .  S
Eu102       O120   2.367       .  S
Eu102       O108   2.346   1_545  S
Eu103       O107   2.346       .  S
Eu103       O118   2.367   1_545  S
Eu104       O118   2.344       .  S
Eu104       O108   2.347       .  S
Eu105       O107   2.344       .  S
Eu105       O120   2.340       .  S
Eu106       O107   2.350   1_565  S
Eu106       O118   2.351       .  S
Eu106       O120   2.346   1_565  S
Eu106       O108   2.346       .  S
C109       C1515   1.474       .  S
C110       C1442   1.485       .  S
C111       C1502   1.484       .  S
C112       C1522   1.469       .  S
C113       C1462   1.501       .  S
C114       C1455   1.479       .  S
C115       C1485   1.496       .  S
C116       C1425   1.467       .  S
H117        O118   0.965       .  S
H119        O120   0.966       .  S
C121        C122   1.536   1_554  S
C121        C127   1.527       .  S
C121        C125   1.544       .  S
C121       C1405   1.522       .  S
C122        H129   1.086       .  S
C122        C123   1.370       .  D
C123        C124   1.544   1_556  S
C123       C1655   1.492       .  S
C124        C128   1.546       .  S
C124        C126   1.529       .  S
C124        H130   1.110       .  S
C125        H131   1.082       .  S
C125        C126   1.360       .  D
C126       C1512   1.460       .  S
C127        H132   1.087       .  S
C127        C128   1.360       .  D
C128       C1415   1.480       .  S
C133        C134   1.540   1_556  S
C133        C139   1.529   1_556  S
C133        C137   1.553       .  S
C133       C1385   1.535       .  S
C134        H141   1.086       .  S
C134        C135   1.363       .  D
C135        C136   1.539       .  S
C135       C1505   1.473       .  S
C136        C140   1.536       .  S
C136        C138   1.544   1_554  S
C136        H142   1.106       .  S
C137        H143   1.080       .  S
C137        C138   1.380       .  D
C138       C1665   1.509       .  S
C139        H144   1.087       .  S
C139        C140   1.357       .  D
C140       C1392   1.477       .  S
C145        C146   1.543       .  S
C145        C151   1.527       .  S
C145        C149   1.548       .  S
C145       C1362   1.529       .  S
C146        H153   1.085       .  S
C146        C147   1.374       .  D
C147        C148   1.540       .  S
C147       C1452   1.490       .  S
C148        C152   1.533       .  S
C148        C150   1.536       .  S
C148        H154   1.108       .  S
C149        H155   1.084       .  S
C149        C150   1.367       .  D
C150       C1602   1.479       .  S
C151        H156   1.087       .  S
C151        C152   1.357       .  D
C152       C1372   1.472       .  S
C157        C158   1.542       .  S
C157        C163   1.525   1_554  S
C157        C161   1.543   1_554  S
C157       C1342   1.532       .  S
C158        H165   1.082       .  S
C158        C159   1.371       .  D
C159        C160   1.545       .  S
C159       C1525   1.495       .  S
C160        C164   1.540   1_554  S
C160        C162   1.535   1_554  S
C160        H166   1.110   1_554  S
C161        H167   1.085       .  S
C161        C162   1.369       .  D
C162       C1645   1.479       .  S
C163        H168   1.087       .  S
C163        C164   1.362       .  D
C164       C1352   1.485       .  S
C169        C170   1.543       .  S
C169        C175   1.521       .  S
C169        C173   1.528   1_556  S
C169       C1322   1.524       .  S
C170        H177   1.082       .  S
C170        C171   1.367       .  D
C171        C172   1.538       .  S
C171       C1672   1.468       .  S
C172        C176   1.550       .  S
C172        C174   1.548   1_556  S
C172        H178   1.110       .  S
C173        H179   1.086       .  S
C173        C174   1.369       .  D
C174       C1495   1.489       .  S
C175        H180   1.087       .  S
C175        C176   1.359       .  D
C176       C1332   1.488       .  S
C181        C182   1.545       .  S
C181        C187   1.525       .  S
C181        C185   1.551       .  S
C181       C1302   1.542       .  S
C182        H189   1.086       .  S
C182        C183   1.373       .  D
C183        C184   1.548       .  S
C183       C1465   1.494       .  S
C184        C188   1.542       .  S
C184        C186   1.536       .  S
C184        H190   1.109       .  S
C185        H191   1.082       .  S
C185        C186   1.371       .  D
C186       C1585   1.492       .  S
C187        H192   1.087       .  S
C187        C188   1.362       .  D
C188       C1312   1.486       .  S
C193        C194   1.528       .  S
C193        C199   1.525       .  S
C193        C197   1.533       .  S
C193       C1282   1.512       .  S
C194        H201   1.087       .  S
C194        C195   1.361       .  D
C195        C196   1.543       .  S
C195       C1615   1.464       .  S
C196        C200   1.549       .  S
C196        C198   1.545       .  S
C196        H202   1.110       .  S
C197        H203   1.080       .  S
C197        C198   1.363       .  D
C198       C1445   1.483       .  S
C199        H204   1.087       .  S
C199        C200   1.363       .  D
C200       C1292   1.490       .  S
O205        C216   1.289       .  A
O205       Eu241   2.447       .  S
O206        C217   1.288   1_455  A
O206       Eu240   2.436       .  S
O207        C218   1.290       .  A
O207       Eu213   2.450       .  S
O208        C219   1.288       .  A
O208       Eu213   2.431       .  S
O209        C219   1.293       .  A
O209       Eu243   2.461       .  S
O210        C218   1.290       .  A
O210       Eu242   2.450       .  S
O211        C217   1.293       .  A
O211       Eu213   2.466       .  S
O212        C216   1.293       .  A
O212       Eu213   2.467       .  S
Eu213       O223   2.354       .  S
Eu213       O215   2.337       .  S
Eu213       O214   2.345       .  S
Eu213       O221   2.339       .  S
O214       Eu243   2.344       .  S
O214       Eu240   2.341   1_655  S
O215       Eu241   2.352       .  S
O215       Eu242   2.344       .  S
C216       C1365   1.490       .  S
C217       C1185   1.484       .  S
C218       C1252   1.476       .  S
C219       C1235   1.474       .  S
H220        O221   0.966       .  S
O221       Eu242   2.363       .  S
O221       Eu240   2.352   1_655  S
H222        O223   0.965       .  S
O223       Eu241   2.348       .  S
O223       Eu243   2.368       .  S
O224        C247   1.289       .  A
O224       Eu240   2.443       .  S
O225        C248   1.293       .  A
O225       Eu241   2.470       .  S
O226        C249   1.295       .  A
O226       Eu242   2.482   1_455  S
O227        C250   1.294       .  A
O227       Eu243   2.470   1_455  S
O228        C251   1.296       .  A
O228       Eu243   2.483       .  S
O229        C252   1.293       .  A
O229       Eu242   2.462       .  S
O230        C253   1.291       .  A
O230       Eu244   2.457       .  S
O231        C254   1.292       .  A
O231       Eu244   2.457       .  S
O232        C253   1.293       .  A
O232       Eu242   2.463   1_455  S
O233        C254   1.294       .  A
O233       Eu243   2.474   1_455  S
O234        C249   1.293       .  A
O234       Eu240   2.462       .  S
O235        C252   1.290       .  A
O235       Eu241   2.439       .  S
O236        C251   1.293       .  A
O236       Eu241   2.464       .  S
O237        C250   1.295       .  A
O237       Eu240   2.473       .  S
O238        C247   1.283       .  A
O238       Eu244   2.401       .  S
O239        C248   1.285   1_455  A
O239       Eu244   2.415       .  S
Eu240       O258   2.345       .  S
Eu240       O246   2.346       .  S
Eu241       O245   2.341       .  S
Eu241       O256   2.354       .  S
Eu242       O256   2.371       .  S
Eu242       O246   2.342   1_655  S
Eu243       O245   2.345       .  S
Eu243       O258   2.362   1_655  S
Eu244       O245   2.346   1_455  S
Eu244       O256   2.334   1_455  S
Eu244       O258   2.339       .  S
Eu244       O246   2.347       .  S
C247       C1285   1.463       .  S
C248       C1192   1.480       .  S
C249       C1242   1.495       .  S
C250       C1202   1.490       .  S
C251       C1222   1.493       .  S
C252       C1262   1.472       .  S
C253       C1275   1.490       .  S
C254       C1212   1.492       .  S
H255        O256   0.966       .  S
H257        O258   0.965       .  S
O259        C270   1.291       .  A
O259       Eu295   2.459       .  S
O260        C271   1.291   1_455  A
O260       Eu294   2.457       .  S
O261        C272   1.292       .  A
O261       Eu267   2.466       .  S
O262        C273   1.291       .  A
O262       Eu267   2.453       .  S
O263        C273   1.296       .  A
O263       Eu297   2.481       .  S
O264        C272   1.295       .  A
O264       Eu296   2.474       .  S
O265        C271   1.288       .  A
O265       Eu267   2.432       .  S
O266        C270   1.289       .  A
O266       Eu267   2.442       .  S
Eu267       O277   2.359       .  S
Eu267       O269   2.334       .  S
Eu267       O268   2.347       .  S
Eu267       O275   2.358       .  S
O268       Eu297   2.357       .  S
O268       Eu294   2.349   1_655  S
O269       Eu295   2.345       .  S
O269       Eu296   2.354       .  S
C270       C1535   1.481       .  S
C271       C1082   1.462       .  S
C272       C1105   1.497       .  S
C273       C1162   1.489       .  S
H274        O275   0.966       .  S
O275       Eu296   2.339       .  S
O275       Eu294   2.361   1_655  S
H276        O277   0.966       .  S
O277       Eu295   2.349       .  S
O277       Eu297   2.345       .  S
O278        C301   1.292       .  A
O278       Eu294   2.461       .  S
O279        C302   1.288       .  A
O279       Eu295   2.436       .  S
O280        C303   1.296       .  A
O280       Eu296   2.486   1_455  S
O281        C304   1.291       .  A
O281       Eu297   2.451   1_455  S
O282        C305   1.292       .  A
O282       Eu297   2.459       .  S
O283        C306   1.294       .  A
O283       Eu296   2.469       .  S
O284        C307   1.287       .  A
O284       Eu298   2.435       .  S
O285        C308   1.286       .  A
O285       Eu298   2.428       .  S
O286        C307   1.292       .  A
O286       Eu296   2.452   1_455  S
O287        C308   1.294       .  A
O287       Eu297   2.472   1_455  S
O288        C303   1.290       .  A
O288       Eu294   2.450       .  S
O289        C306   1.291       .  A
O289       Eu295   2.452       .  S
O290        C305   1.292       .  A
O290       Eu295   2.465       .  S
O291        C304   1.291       .  A
O291       Eu294   2.452       .  S
O292        C301   1.297       .  A
O292       Eu298   2.491       .  S
O293        C302   1.294   1_455  A
O293       Eu298   2.476       .  S
Eu294       O312   2.353       .  S
Eu294       O300   2.346       .  S
Eu295       O299   2.343       .  S
Eu295       O310   2.360       .  S
Eu296       O310   2.345       .  S
Eu296       O300   2.358   1_655  S
Eu297       O299   2.354       .  S
Eu297       O312   2.344   1_655  S
Eu298       O299   2.349   1_455  S
Eu298       O310   2.358   1_455  S
Eu298       O312   2.355       .  S
Eu298       O300   2.346       .  S
C301       C1305   1.497       .  S
C302       C1092   1.481       .  S
C303       C1132   1.496       .  S
C304       C1175   1.478       .  S
C305       C1155   1.487       .  S
C306       C1112   1.486       .  S
C307       C1122   1.471       .  S
C308       C1145   1.470       .  S
H309        O310   0.965       .  S
H311        O312   0.965       .  S
C313        C314   1.536       .  S
C313        C319   1.520       .  S
C313        C317   1.537       .  S
C313       C1062   1.516       .  S
C314        H321   1.086       .  S
C314        C315   1.367       .  D
C315        C316   1.545       .  S
C315       C1115   1.482       .  S
C316        C320   1.551       .  S
C316        C318   1.550       .  S
C316        H322   1.110       .  S
C317        H323   1.084       .  S
C317        C318   1.362       .  D
C318       C1225   1.483       .  S
C319        H324   1.088       .  S
C319        C320   1.358       .  D
C320       C1072   1.486       .  S
C325        C326   1.546       .  S
C325        C331   1.528       .  S
C325        C329   1.542       .  S
C325       C1042   1.533       .  S
C326        H333   1.083       .  S
C326        C327   1.367       .  D
C327        C328   1.539       .  S
C327       C1215   1.485       .  S
C328        C332   1.532       .  S
C328        C330   1.543       .  S
C328        H334   1.103       .  S
C329        H335   1.084       .  S
C329        C330   1.377       .  D
C330       C1125   1.499       .  S
C331        H336   1.087       .  S
C331        C332   1.358       .  D
C332       C1052   1.476       .  S
C337        C338   1.549   1_545  S
C337        C343   1.531       .  S
C337        C341   1.545       .  S
C337       C1435   1.538       .  S
C338        H345   1.084       .  S
C338        C339   1.375       .  D
C339        C340   1.537   1_565  S
C339       C1255   1.490       .  S
C340        C344   1.534       .  S
C340        C342   1.538       .  S
C340        H346   1.108       .  S
C341        H347   1.084       .  S
C341        C342   1.366       .  D
C342       C1165   1.483       .  S
C343        H348   1.087       .  S
C343        C344   1.361       .  D
C344       C1032   1.480   1_545  S
C349        C350   1.535       .  S
C349        C355   1.521   1_545  S
C349        C353   1.538   1_545  S
C349       C1572   1.517       .  S
C350        H357   1.086       .  S
C350        C351   1.365       .  D
C351        C352   1.548   1_545  S
C351       C1152   1.480       .  S
C352        C356   1.544       .  S
C352        C354   1.545       .  S
C352        H358   1.109       .  S
C353        H359   1.080       .  S
C353        C354   1.368       .  D
C354       C1265   1.486       .  S
C355        H360   1.088       .  S
C355        C356   1.356       .  D
C356       C1022   1.481       .  S
C361        C362   1.541       .  S
C361        C367   1.527       .  S
C361        C365   1.546       .  S
C361       C1002   1.531       .  S
C362        H369   1.086       .  S
C362        C363   1.362       .  D
C363        C364   1.533       .  S
C363       C1232   1.464       .  S
C364        C368   1.536       .  S
C364        C366   1.545       .  S
C364        H370   1.109       .  S
C365        H371   1.081       .  S
C365        C366   1.374       .  D
C366       C1102   1.501       .  S
C367        H372   1.087       .  S
C367        C368   1.360       .  D
C368       C1012   1.476       .  S
C373        C374   1.531       .  S
C373        C379   1.515       .  S
C373        C377   1.543       .  S
C373        C982   1.524       .  S
C374        H381   1.086       .  S
C374        C375   1.370       .  D
C375        C376   1.555       .  S
C375       C1135   1.498       .  S
C376        C380   1.557       .  S
C376        C378   1.547       .  S
C376        H382   1.110       .  S
C377        H383   1.083       .  S
C377        C378   1.367       .  D
C378       C1205   1.480       .  S
C379        H384   1.088       .  S
C379        C380   1.358       .  D
C380        C995   1.493       .  S
C385        C386   1.546       .  S
C385        C391   1.527       .  S
C385        C389   1.531   1_545  S
C385       C1422   1.520       .  S
C386        H393   1.082       .  S
C386        C387   1.364       .  D
C387        C388   1.533       .  S
C387       C1172   1.466       .  S
C388        C392   1.546       .  S
C388        C390   1.547   1_545  S
C388        H394   1.111       .  S
C389        H395   1.086       .  S
C389        C390   1.365       .  D
C390       C1245   1.491       .  S
C391        H396   1.087       .  S
C391        C392   1.360       .  D
C392        C972   1.481       .  S
C397        C398   1.545   1_545  S
C397        C403   1.529       .  S
C397        C401   1.541       .  S
C397       C1562   1.527       .  S
C398        H405   1.084       .  S
C398        C399   1.372       .  D
C399        C400   1.543   1_565  S
C399       C1272   1.494       .  S
C400        C404   1.535       .  S
C400        C402   1.532       .  S
C400        H406   1.110       .  S
C401        H407   1.086       .  S
C401        C402   1.363       .  D
C402       C1142   1.462       .  S
C403        H408   1.087       .  S
C403        C404   1.360       .  D
C404        C962   1.478       .  S
O409        C420   1.289   1_556  A
O409       Eu445   2.443       .  S
O410        C421   1.292       .  A
O410       Eu444   2.459       .  S
O411        C422   1.292       .  A
O411       Eu417   2.457       .  S
O412        C423   1.290       .  A
O412       Eu417   2.449       .  S
O413        C423   1.292       .  A
O413       Eu447   2.453       .  S
O414        C422   1.287       .  A
O414       Eu446   2.431       .  S
O415        C421   1.292       .  A
O415       Eu417   2.459       .  S
O416        C420   1.293       .  A
O416       Eu417   2.468       .  S
Eu417       O427   2.343       .  S
Eu417       O419   2.341       .  S
Eu417       O418   2.350       .  S
Eu417       O425   2.350       .  S
O418       Eu447   2.348       .  S
O418       Eu444   2.350       .  S
O419       Eu445   2.346   1_554  S
O419       Eu446   2.348       .  S
C420       C1382   1.489   1_554  S
C421       C1005   1.490       .  S
C422        C895   1.475       .  S
C423        C955   1.481       .  S
H424        O425   0.966       .  S
O425       Eu446   2.366       .  S
O425       Eu444   2.354       .  S
H426        O427   0.965       .  S
O427       Eu445   2.344   1_554  S
O427       Eu447   2.361       .  S
O428        C451   1.291       .  A
O428       Eu444   2.461       .  S
O429        C452   1.290       .  A
O429       Eu445   2.451       .  S
O430        C453   1.296       .  A
O430       Eu446   2.486       .  S
O431        C454   1.292       .  A
O431       Eu447   2.463       .  S
O432        C455   1.295       .  A
O432       Eu447   2.482   1_556  S
O433        C456   1.292       .  A
O433       Eu446   2.458   1_556  S
O434        C457   1.292       .  A
O434       Eu448   2.461       .  S
O435        C458   1.288       .  A
O435       Eu448   2.441       .  S
O436        C457   1.292       .  A
O436       Eu446   2.464   1_556  S
O437        C458   1.292       .  A
O437       Eu447   2.467   1_556  S
O438        C453   1.291       .  A
O438       Eu444   2.452       .  S
O439        C456   1.293       .  A
O439       Eu445   2.462       .  S
O440        C455   1.293       .  A
O440       Eu445   2.469       .  S
O441        C454   1.289       .  A
O441       Eu444   2.444       .  S
O442        C451   1.289   1_556  A
O442       Eu448   2.444       .  S
O443        C452   1.286       .  A
O443       Eu448   2.423       .  S
Eu444       O462   2.353       .  S
Eu444       O450   2.349       .  S
Eu445       O449   2.340       .  S
Eu445       O460   2.355       .  S
Eu446       O460   2.362   1_554  S
Eu446       O450   2.339       .  S
Eu447       O449   2.338   1_554  S
Eu447       O462   2.369       .  S
Eu448       O449   2.351       .  S
Eu448       O460   2.338       .  S
Eu448       O462   2.346   1_556  S
Eu448       O450   2.342   1_556  S
C451       C1325   1.475       .  S
C452       C1065   1.476       .  S
C453        C882   1.493       .  S
C454        C925   1.465       .  S
C455        C945   1.495       .  S
C456        C902   1.486       .  S
C457        C912   1.491       .  S
C458        C935   1.461       .  S
H459        O460   0.966       .  S
H461        O462   0.966       .  S
O463        C474   1.290       .  A
O463       Eu499   2.453       .  S
O464        C475   1.294       .  A
O464       Eu498   2.476       .  S
O465        C476   1.294       .  A
O465       Eu471   2.480       .  S
O466        C477   1.292       .  A
O466       Eu471   2.461       .  S
O467        C477   1.296       .  A
O467       Eu501   2.480   1_554  S
O468        C476   1.292       .  A
O468       Eu500   2.471   1_554  S
O469        C475   1.287       .  A
O469       Eu471   2.429       .  S
O470        C474   1.290   1_554  A
O470       Eu471   2.445       .  S
Eu471       O481   2.366   1_554  S
Eu471       O473   2.339   1_554  S
Eu471       O472   2.344       .  S
Eu471       O479   2.361       .  S
O472       Eu501   2.354   1_554  S
O472       Eu498   2.347       .  S
O473       Eu499   2.357       .  S
O473       Eu500   2.361       .  S
C474       C1402   1.471       .  S
C475        C985   1.474       .  S
C476        C825   1.480       .  S
C477        C865   1.488       .  S
H478        O479   0.965       .  S
O479       Eu500   2.337   1_554  S
O479       Eu498   2.354       .  S
H480        O481   0.966       .  S
O481       Eu499   2.356       .  S
O481       Eu501   2.339       .  S
O482        C505   1.292       .  A
O482       Eu498   2.463       .  S
O483        C506   1.288       .  A
O483       Eu499   2.437       .  S
O484        C507   1.293       .  A
O484       Eu500   2.469   1_554  S
O485        C508   1.293       .  A
O485       Eu501   2.466   1_554  S
O486        C509   1.296       .  A
O486       Eu501   2.487       .  S
O487        C510   1.290       .  A
O487       Eu500   2.449       .  S
O488        C511   1.293       .  A
O488       Eu502   2.465       .  S
O489        C512   1.293       .  A
O489       Eu502   2.462       .  S
O490        C511   1.291       .  A
O490       Eu500   2.454       .  S
O491        C512   1.290       .  A
O491       Eu501   2.449       .  S
O492        C507   1.291       .  A
O492       Eu498   2.455       .  S
O493        C510   1.291       .  A
O493       Eu499   2.455       .  S
O494        C509   1.295       .  A
O494       Eu499   2.478       .  S
O495        C508   1.291       .  A
O495       Eu498   2.450       .  S
O496        C505   1.295   1_556  A
O496       Eu502   2.473       .  S
O497        C506   1.297       .  A
O497       Eu502   2.491       .  S
Eu498       O516   2.352   1_554  S
Eu498       O504   2.351   1_554  S
Eu499       O503   2.344       .  S
Eu499       O514   2.362       .  S
Eu500       O514   2.352       .  S
Eu500       O504   2.356       .  S
Eu501       O503   2.358       .  S
Eu501       O516   2.342       .  S
Eu502       O503   2.353       .  S
Eu502       O514   2.356       .  S
Eu502       O516   2.359       .  S
Eu502       O504   2.356       .  S
C505       C1345   1.493       .  S
C506       C1045   1.490       .  S
C507        C812   1.492       .  S
C508        C872   1.480       .  S
C509        C855   1.507       .  S
C510        C832   1.476       .  S
C511        C805   1.487       .  S
C512        C845   1.485       .  S
H513        O514   0.966       .  S
H515        O516   0.965   1_554  S
C517        C518   1.540   1_655  S
C517        C523   1.528   1_655  S
C517        C521   1.542       .  S
C517       C1195   1.524       .  S
C518        H525   1.085       .  S
C518        C519   1.372       .  D
C519        C520   1.539       .  S
C519        C835   1.487       .  S
C520        C524   1.545       .  S
C520        C522   1.544   1_455  S
C520        H526   1.108       .  S
C521        H527   1.082       .  S
C521        C522   1.363       .  D
C522        C942   1.486       .  S
C523        H528   1.087       .  S
C523        C524   1.358       .  D
C524        C792   1.483       .  S
C529        C530   1.545       .  S
C529        C535   1.531       .  S
C529        C533   1.543   1_655  S
C529       C1095   1.530       .  S
C530        H537   1.079       .  S
C530        C531   1.367       .  D
C531        C532   1.542       .  S
C531        C932   1.491       .  S
C532        C536   1.534       .  S
C532        C534   1.536   1_655  S
C532        H538   1.107       .  S
C533        H539   1.085       .  S
C533        C534   1.370       .  D
C534        C802   1.486       .  S
C535        H540   1.087       .  S
C535        C536   1.359       .  D
C536        C782   1.473       .  S
C541        C542   1.544       .  S
C541        C547   1.525       .  S
C541        C545   1.542       .  S
C541       C1632   1.532       .  S
C542        H549   1.080       .  S
C542        C543   1.369       .  D
C543        C544   1.550       .  S
C543        C852   1.502       .  S
C544        C548   1.549       .  S
C544        C546   1.537       .  S
C544        H550   1.110       .  S
C545        H551   1.086       .  S
C545        C546   1.367       .  D
C546        C905   1.474       .  S
C547        H552   1.087       .  S
C547        C548   1.359       .  D
C548        C772   1.483       .  S
C553        C554   1.542       .  S
C553        C559   1.531       .  S
C553        C557   1.550       .  S
C553       C1482   1.536       .  S
C554        H561   1.085       .  S
C554        C555   1.371       .  D
C555        C556   1.541       .  S
C555        C892   1.485       .  S
C556        C560   1.537       .  S
C556        C558   1.538       .  S
C556        H562   1.109       .  S
C557        H563   1.083       .  S
C557        C558   1.368       .  D
C558        C862   1.485       .  S
C559        H564   1.087       .  S
C559        C560   1.362       .  D
C560        C762   1.483       .  S
C565        C566   1.528   1_655  S
C565        C571   1.530       .  S
C565        C569   1.543       .  S
C565       C1085   1.520       .  S
C566        H573   1.086       .  S
C566        C567   1.368       .  D
C567        C568   1.547   1_455  S
C567        C815   1.492       .  S
C568        C572   1.546       .  S
C568        C570   1.533       .  S
C568        H574   1.109       .  S
C569        H575   1.081       .  S
C569        C570   1.362       .  D
C570        C922   1.465       .  S
C571        H576   1.087       .  S
C571        C572   1.361       .  D
C572        C755   1.485       .  S
C577        C578   1.540       .  S
C577        C583   1.529       .  S
C577        C581   1.544   1_655  S
C577       C1182   1.527       .  S
C578        H585   1.086       .  S
C578        C579   1.369       .  D
C579        C580   1.538       .  S
C579        C952   1.477       .  S
C580        C584   1.543       .  S
C580        C582   1.543   1_655  S
C580        H586   1.110       .  S
C581        H587   1.083       .  S
C581        C582   1.367       .  D
C582        C822   1.489       .  S
C583        H588   1.087       .  S
C583        C584   1.360       .  D
C584        C745   1.487       .  S
C589        C590   1.544       .  S
C589        C595   1.527       .  S
C589        C593   1.540       .  S
C589       C1622   1.534       .  S
C590        H597   1.079       .  S
C590        C591   1.373       .  D
C591        C592   1.548       .  S
C591        C915   1.501       .  S
C592        C596   1.541       .  S
C592        C594   1.540       .  S
C592        H598   1.109       .  S
C593        H599   1.086       .  S
C593        C594   1.366       .  D
C594        C842   1.476       .  S
C595        H600   1.087       .  S
C595        C596   1.362       .  D
C596        C732   1.485       .  S
C601        C602   1.537       .  S
C601        C607   1.518       .  S
C601        C605   1.528       .  S
C601       C1472   1.517       .  S
C602        H609   1.083       .  S
C602        C603   1.364       .  D
C603        C604   1.546       .  S
C603        C875   1.470       .  S
C604        C608   1.557       .  S
C604        C606   1.553       .  S
C604        H610   1.108       .  S
C605        H611   1.086       .  S
C605        C606   1.366       .  D
C606        C885   1.497       .  S
C607        H612   1.086       .  S
C607        C608   1.362       .  D
C608        C722   1.498       .  S
O613        C624   1.301       .  A
O613       Eu649   2.521       .  S
O614        C625   1.295       .  A
O614       Eu648   2.488       .  S
O615        C626   1.297       .  A
O615       Eu621   2.505       .  S
O616        C627   1.292       .  A
O616       Eu621   2.475       .  S
O617        C627   1.288       .  A
O617       Eu651   2.440       .  S
O618        C626   1.281       .  A
O618       Eu650   2.400       .  S
O619        C625   1.287       .  A
O619       Eu621   2.435       .  S
O620        C624   1.280       .  A
O620       Eu621   2.390       .  S
Eu621       O631   2.354       .  S
Eu621       O623   2.347       .  S
Eu621       O622   2.364       .  S
Eu621       O629   2.329       .  S
O622       Eu651   2.357       .  S
O622       Eu648   2.365       .  S
O623       Eu649   2.346       .  S
O623       Eu650   2.355       .  S
C624       C1555   1.482       .  S
C625        C735   1.467       .  S
C626       C1075   1.470       .  S
C627       C1315   1.465       .  S
H628        O629   0.964       .  S
O629       Eu650   2.339       .  S
O629       Eu648   2.354       .  S
H630        O631   0.965       .  S
O631       Eu649   2.349       .  S
O631       Eu651   2.342       .  S
O632        C655   1.299       .  A
O632       Eu648   2.513       .  S
O633        C656   1.294       .  A
O633       Eu649   2.483       .  S
O634        C657   1.298       .  A
O634       Eu650   2.508       .  S
O635        C658   1.294       .  A
O635       Eu651   2.483       .  S
O636        C659   1.296       .  A
O636       Eu651   2.499       .  S
O637        C660   1.290       .  A
O637       Eu650   2.459       .  S
O638        C661   1.294       .  A
O638       Eu652   2.480       .  S
O639        C662   1.300       .  A
O639       Eu652   2.518       .  S
O640        C661   1.285       .  A
O640       Eu650   2.420       .  S
O641        C662   1.281       .  A
O641       Eu651   2.398       .  S
O642        C657   1.284       .  A
O642       Eu648   2.407       .  S
O643        C660   1.289       .  A
O643       Eu649   2.441       .  S
O644        C659   1.284       .  A
O644       Eu649   2.415       .  S
O645        C658   1.287       .  A
O645       Eu648   2.435       .  S
O646        C655   1.283       .  A
O646       Eu652   2.405       .  S
O647        C656   1.289       .  A
O647       Eu652   2.446       .  S
Eu648       O666   2.341       .  S
Eu648       O654   2.346       .  S
Eu649       O653   2.355       .  S
Eu649       O664   2.364       .  S
Eu650       O664   2.363       .  S
Eu650       O654   2.339       .  S
Eu651       O653   2.347       .  S
Eu651       O666   2.353       .  S
Eu652       O653   2.340       .  S
Eu652       O664   2.357       .  S
Eu652       O666   2.347       .  S
Eu652       O654   2.359       .  S
C655       C1295   1.472       .  S
C656        C765   1.471       .  S
C657        C775   1.476       .  S
C658       C1055   1.465       .  S
C659        C725   1.468       .  S
C660       C1015   1.458       .  S
C661       C1375   1.461       .  S
C662        C992   1.471       .  S
H663        O664   0.964       .  S
H665        O666   0.964       .  S
O667        C678   1.301       .  A
O667       Eu703   2.523       .  S
O668        C679   1.295       .  A
O668       Eu702   2.489   1_455  S
O669        C680   1.299       .  A
O669       Eu675   2.515       .  S
O670        C681   1.293       .  A
O670       Eu675   2.479   1_545  S
O671        C681   1.292   1_554  A
O671       Eu705   2.460       .  S
O672        C680   1.282   1_655  A
O672       Eu704   2.398       .  S
O673        C679   1.287       .  A
O673       Eu675   2.432   1_545  S
O674        C678   1.280   1_556  A
O674       Eu675   2.383       .  S
Eu675       O685   2.363   1_566  S
Eu675       O677   2.340       .  S
Eu675       O676   2.367   1_565  S
Eu675       O683   2.337   1_455  S
O676       Eu705   2.368   1_556  S
O676       Eu702   2.359   1_455  S
O677       Eu703   2.340   1_556  S
O677       Eu704   2.352   1_455  S
C678       C1412   1.478       .  S
C679        C965   1.468       .  S
C680        C795   1.482       .  S
C681       C1355   1.471       .  S
H682        O683   0.965       .  S
O683       Eu704   2.349       .  S
O683       Eu702   2.357   1_565  S
H684        O685   0.964       .  S
O685       Eu703   2.344   1_545  S
O685       Eu705   2.343       .  S
O686        C709   1.298       .  A
O686       Eu702   2.511       .  S
O687        C710   1.293       .  A
O687       Eu703   2.480   1_655  S
O688        C711   1.303       .  A
O688       Eu704   2.534       .  S
O689        C712   1.296       .  A
O689       Eu705   2.491   1_556  S
O690        C713   1.299       .  A
O690       Eu705   2.511       .  S
O691        C714   1.297       .  A
O691       Eu704   2.502   1_554  S
O692        C715   1.296       .  A
O692       Eu706   2.498   1_565  S
O693        C716   1.300       .  A
O693       Eu706   2.514       .  S
O694        C715   1.286   1_556  A
O694       Eu704   2.428       .  S
O695        C716   1.286       .  A
O695       Eu705   2.418   1_655  S
O696        C711   1.279   1_545  A
O696       Eu702   2.379       .  S
O697        C714   1.285       .  A
O697       Eu703   2.422   1_655  S
O698        C713   1.282       .  A
O698       Eu703   2.404   1_545  S
O699        C712   1.286   1_655  A
O699       Eu702   2.429       .  S
O700        C709   1.282   1_554  A
O700       Eu706   2.398       .  S
O701        C710   1.286   1_545  A
O701       Eu706   2.431       .  S
Eu702       O720   2.326   1_556  S
Eu702       O708   2.350       .  S
Eu703       O707   2.352   1_465  S
Eu703       O718   2.369   1_455  S
Eu704       O718   2.366   1_556  S
Eu704       O708   2.342   1_565  S
Eu705       O707   2.352   1_455  S
Eu705       O720   2.352   1_455  S
Eu706       O707   2.346       .  S
Eu706       O718   2.356   1_545  S
Eu706       O720   2.344       .  S
Eu706       O708   2.352   1_554  S
C709       C1335   1.470       .  S
C710       C1035   1.465       .  S
C711       C1025   1.476       .  S
C712        C785   1.468       .  S
C713        C975   1.483       .  S
C714        C742   1.470       .  S
C715       C1395   1.472       .  S
C716        C752   1.482       .  S
H717        O718   0.964       .  S
H719        O720   0.963       .  S
C721        C722   1.411       .  A
C721        C726   1.389       .  A
C721        H728   1.082       .  S
C722        C723   1.410       .  A
C723        C724   1.410       .  A
C723        F730   1.356       .  S
C724        C725   1.407       .  A
C724        H729   1.083       .  S
C725        C726   1.397       .  A
C726        F727   1.359       .  S
C731        C732   1.408       .  A
C731        C736   1.394       .  A
C731        H738   1.083       .  S
C732        C733   1.404       .  A
C733        C734   1.403       .  A
C733        F740   1.357       .  S
C734        C735   1.406       .  A
C734        H739   1.081       .  S
C735        C736   1.400       .  A
C736        F737   1.358       .  S
C741        C742   1.404       .  A
C741        C746   1.400   1_655  A
C741        H748   1.083   1_655  S
C742        C743   1.403       .  A
C743        C744   1.400       .  A
C743        F750   1.358       .  S
C744        C745   1.410       .  A
C744        H749   1.084       .  S
C745        C746   1.402   1_655  A
C746        F747   1.355       .  S
C751        C752   1.411       .  A
C751        C756   1.393       .  A
C751        H758   1.084       .  S
C752        C753   1.402       .  A
C753        C754   1.404       .  A
C753        F760   1.357       .  S
C754        C755   1.413       .  A
C754        H759   1.083       .  S
C755        C756   1.400       .  A
C756        F757   1.357   1_655  S
C761        C762   1.406       .  A
C761        C766   1.398       .  A
C761        H768   1.084       .  S
C762        C763   1.404       .  A
C763        C764   1.403       .  A
C763        F770   1.357       .  S
C764        C765   1.406       .  A
C764        H769   1.083       .  S
C765        C766   1.402       .  A
C766        F767   1.357       .  S
C771        C772   1.415       .  A
C771        C776   1.402       .  A
C771        H778   1.083       .  S
C772        C773   1.397       .  A
C773        C774   1.392       .  A
C773        F780   1.357       .  S
C774        C775   1.409       .  A
C774        H779   1.082       .  S
C775        C776   1.399       .  A
C776        F777   1.357       .  S
C781        C782   1.405   1_455  A
C781        C786   1.400       .  A
C781        H788   1.083       .  S
C782        C783   1.400       .  A
C783        C784   1.398       .  A
C783        F790   1.358       .  S
C784        C785   1.406   1_655  A
C784        H789   1.084       .  S
C785        C786   1.401       .  A
C786        F787   1.357       .  S
C791        C792   1.394   1_655  A
C791        C796   1.391       .  A
C791        H798   1.083       .  S
C792        C793   1.416       .  A
C793        C794   1.404       .  A
C793        F800   1.357       .  S
C794        C795   1.401       .  A
C794        H799   1.083       .  S
C795        C796   1.415   1_455  A
C796        F797   1.356       .  S
C801        C802   1.405       .  A
C801        C806   1.397       .  A
C801        H808   1.083       .  S
C802        C803   1.406       .  A
C803        C804   1.398       .  A
C803        F810   1.357       .  S
C804        C805   1.408       .  A
C804        H809   1.083       .  S
C805        C806   1.411       .  A
C806        F807   1.358       .  S
C811        C812   1.410       .  A
C811        C816   1.405       .  A
C811        H818   1.083       .  S
C812        C813   1.410       .  A
C813        C814   1.393       .  A
C813        F820   1.357       .  S
C814        C815   1.404       .  A
C814        H819   1.083       .  S
C815        C816   1.410       .  A
C816        F817   1.357   1_455  S
C821        C822   1.401       .  A
C821        C826   1.403       .  A
C821        H828   1.082       .  S
C822        C823   1.412       .  A
C823        C824   1.405       .  A
C823        F830   1.359       .  S
C824        C825   1.404       .  A
C824        H829   1.083       .  S
C825        C826   1.405       .  A
C826        F827   1.356       .  S
C831        C832   1.404       .  A
C831        C836   1.396       .  A
C831        H838   1.083       .  S
C832        C833   1.406       .  A
C833        C834   1.394       .  A
C833        F840   1.358       .  S
C834        C835   1.406       .  A
C834        H839   1.079       .  S
C835        C836   1.409       .  A
C836        F837   1.357       .  S
C841        C842   1.399       .  A
C841        C846   1.397       .  A
C841        H848   1.081       .  S
C842        C843   1.403       .  A
C843        C844   1.398       .  A
C843        F850   1.357       .  S
C844        C845   1.408       .  A
C844        H849   1.083       .  S
C845        C846   1.412       .  A
C846        F847   1.358       .  S
C851        C852   1.404       .  A
C851        C856   1.408       .  A
C851        H858   1.081       .  S
C852        C853   1.410       .  A
C853        C854   1.405       .  A
C853        F860   1.358       .  S
C854        C855   1.410       .  A
C854        H859   1.083       .  S
C855        C856   1.415       .  A
C856        F857   1.356       .  S
C861        C862   1.401       .  A
C861        C866   1.403       .  A
C861        H868   1.083       .  S
C862        C863   1.407       .  A
C863        C864   1.401       .  A
C863        F870   1.356       .  S
C864        C865   1.404       .  A
C864        H869   1.083       .  S
C865        C866   1.412       .  A
C866        F867   1.357       .  S
C871        C872   1.408       .  A
C871        C876   1.399       .  A
C871        H878   1.083       .  S
C872        C873   1.408       .  A
C873        C874   1.397       .  A
C873        F880   1.357       .  S
C874        C875   1.400       .  A
C874        H879   1.083       .  S
C875        C876   1.401       .  A
C876        F877   1.358       .  S
C881        C882   1.409       .  A
C881        C886   1.406       .  A
C881        H888   1.083       .  S
C882        C883   1.411       .  A
C883        C884   1.396       .  A
C883        F890   1.358       .  S
C884        C885   1.407       .  A
C884        H889   1.083       .  S
C885        C886   1.409       .  A
C886        F887   1.355       .  S
C891        C892   1.404       .  A
C891        C896   1.390       .  A
C891        H898   1.080       .  S
C892        C893   1.410       .  A
C893        C894   1.397       .  A
C893        F900   1.356       .  S
C894        C895   1.404       .  A
C894        H899   1.083       .  S
C895        C896   1.407       .  A
C896        F897   1.358       .  S
C901        C902   1.409       .  A
C901        C906   1.400       .  A
C901        H908   1.083       .  S
C902        C903   1.412       .  A
C903        C904   1.398       .  A
C903        F910   1.358       .  S
C904        C905   1.398       .  A
C904        H909   1.082       .  S
C905        C906   1.402       .  A
C906        F907   1.358       .  S
C911        C912   1.405       .  A
C911        C916   1.397       .  A
C911        H918   1.083       .  S
C912        C913   1.411       .  A
C913        C914   1.403       .  A
C913        F920   1.358       .  S
C914        C915   1.408       .  A
C914        H919   1.079       .  S
C915        C916   1.412       .  A
C916        F917   1.357       .  S
C921        C922   1.399       .  A
C921        C926   1.396       .  A
C921        H928   1.084       .  S
C922        C923   1.402       .  A
C923        C924   1.394       .  A
C923        F930   1.357       .  S
C924        C925   1.401       .  A
C924        H929   1.083       .  S
C925        C926   1.407       .  A
C926        F927   1.358       .  S
C931        C932   1.413       .  A
C931        C936   1.398       .  A
C931        H938   1.082       .  S
C932        C933   1.408       .  A
C933        C934   1.395       .  A
C933        F940   1.355       .  S
C934        C935   1.398       .  A
C934        H939   1.084       .  S
C935        C936   1.401       .  A
C936        F937   1.359       .  S
C941        C942   1.403       .  A
C941        C946   1.402       .  A
C941        H948   1.080       .  S
C942        C943   1.403       .  A
C943        C944   1.402       .  A
C943        F950   1.358       .  S
C944        C945   1.411       .  A
C944        H949   1.083       .  S
C945        C946   1.411       .  A
C946        F947   1.357       .  S
C951        C952   1.402       .  A
C951        C956   1.396       .  A
C951        H958   1.083       .  S
C952        C953   1.404       .  A
C953        C954   1.394       .  A
C953        F960   1.357       .  S
C954        C955   1.406       .  A
C954        H959   1.083       .  S
C955        C956   1.411       .  A
C956        F957   1.358       .  S
C961        C962   1.405       .  A
C961        C966   1.398       .  A
C961        H968   1.084       .  S
C962        C963   1.402   1_545  A
C963        C964   1.401       .  A
C963        F970   1.358       .  S
C964        C965   1.406   1_565  A
C964        H969   1.084       .  S
C965        C966   1.401       .  A
C966        F967   1.357       .  S
C971        C972   1.393       .  A
C971        C976   1.392       .  A
C971        H978   1.084   1_545  S
C972        C973   1.414       .  A
C973        C974   1.404       .  A
C973        F980   1.357       .  S
C974        C975   1.401       .  A
C974        H979   1.083       .  S
C975        C976   1.416       .  A
C976        F977   1.356   1_545  S
C981        C982   1.405       .  A
C981        C986   1.393       .  A
C981        H988   1.077       .  S
C982        C983   1.418       .  A
C983        C984   1.397       .  A
C983        F990   1.358       .  S
C984        C985   1.399       .  A
C984        H989   1.083       .  S
C985        C986   1.409       .  A
C986        F987   1.358       .  S
C991        C992   1.409       .  A
C991        C996   1.411       .  A
C991        H998   1.082       .  S
C992        C993   1.400       .  A
C993        C994   1.388       .  A
C993       F1000   1.359       .  S
C994        C995   1.408       .  A
C994        H999   1.083       .  S
C995        C996   1.408       .  A
C996        F997   1.357       .  S
C1001      C1002   1.410       .  A
C1001      C1006   1.396       .  A
C1001      H1008   1.083       .  S
C1002      C1003   1.414       .  A
C1003      C1004   1.400       .  A
C1003      F1010   1.354       .  S
C1004      C1005   1.407       .  A
C1004      H1009   1.083       .  S
C1005      C1006   1.408       .  A
C1006      F1007   1.357       .  S
C1011      C1012   1.407       .  A
C1011      C1016   1.394       .  A
C1011      H1018   1.084       .  S
C1012      C1013   1.403       .  A
C1013      C1014   1.397       .  A
C1013      F1020   1.357       .  S
C1014      C1015   1.401       .  A
C1014      H1019   1.084       .  S
C1015      C1016   1.401       .  A
C1016      F1017   1.359       .  S
C1021      C1022   1.407       .  A
C1021      C1026   1.411       .  A
C1021      H1028   1.083       .  S
C1022      C1023   1.403   1_565  A
C1023      C1024   1.387       .  A
C1023      F1030   1.359       .  S
C1024      C1025   1.404   1_545  A
C1024      H1029   1.084       .  S
C1025      C1026   1.409       .  A
C1026      F1027   1.357       .  S
C1031      C1032   1.407       .  A
C1031      C1036   1.398       .  A
C1031      H1038   1.083       .  S
C1032      C1033   1.402   1_565  A
C1033      C1034   1.399       .  A
C1033      F1040   1.357       .  S
C1034      C1035   1.404   1_545  A
C1034      H1039   1.083       .  S
C1035      C1036   1.402       .  A
C1036      F1037   1.358       .  S
C1041      C1042   1.408       .  A
C1041      C1046   1.397       .  A
C1041      H1048   1.078       .  S
C1042      C1043   1.415       .  A
C1043      C1044   1.401       .  A
C1043      F1050   1.357       .  S
C1044      C1045   1.403       .  A
C1044      H1049   1.083       .  S
C1045      C1046   1.413       .  A
C1046      F1047   1.358       .  S
C1051      C1052   1.404       .  A
C1051      C1056   1.395       .  A
C1051      H1058   1.084       .  S
C1052      C1053   1.403       .  A
C1053      C1054   1.401       .  A
C1053      F1060   1.358       .  S
C1054      C1055   1.406       .  A
C1054      H1059   1.084       .  S
C1055      C1056   1.400       .  A
C1056      F1057   1.357       .  S
C1061      C1062   1.409       .  A
C1061      C1066   1.393       .  A
C1061      H1068   1.079       .  S
C1062      C1063   1.411       .  A
C1063      C1064   1.389       .  A
C1063      F1070   1.358       .  S
C1064      C1065   1.404       .  A
C1064      H1069   1.083       .  S
C1065      C1066   1.406       .  A
C1066      F1067   1.358       .  S
C1071      C1072   1.405       .  A
C1071      C1076   1.389       .  A
C1071      H1078   1.083       .  S
C1072      C1073   1.408       .  A
C1073      C1074   1.410       .  A
C1073      F1080   1.357       .  S
C1074      C1075   1.407       .  A
C1074      H1079   1.083       .  S
C1075      C1076   1.402       .  A
C1076      F1077   1.359       .  S
C1081      C1082   1.397   1_455  A
C1081      C1086   1.395       .  A
C1081      H1088   1.083       .  S
C1082      C1083   1.404       .  A
C1083      C1084   1.390       .  A
C1083      F1090   1.359       .  S
C1084      C1085   1.406       .  A
C1084      H1089   1.076       .  S
C1085      C1086   1.416   1_655  A
C1086      F1087   1.358       .  S
C1091      C1092   1.402   1_455  A
C1091      C1096   1.399       .  A
C1091      H1098   1.083       .  S
C1092      C1093   1.409       .  A
C1093      C1094   1.393       .  A
C1093      F1100   1.359       .  S
C1094      C1095   1.409       .  A
C1094      H1099   1.075       .  S
C1095      C1096   1.414   1_655  A
C1096      F1097   1.357       .  S
C1101      C1102   1.406       .  A
C1101      C1106   1.400       .  A
C1101      H1108   1.083       .  S
C1102      C1103   1.412       .  A
C1103      C1104   1.403       .  A
C1103      F1110   1.354       .  S
C1104      C1105   1.408       .  A
C1104      H1109   1.083       .  S
C1105      C1106   1.412       .  A
C1106      F1107   1.357       .  S
C1111      C1112   1.408       .  A
C1111      C1116   1.399       .  A
C1111      H1118   1.083       .  S
C1112      C1113   1.410       .  A
C1113      C1114   1.396       .  A
C1113      F1120   1.357       .  S
C1114      C1115   1.400       .  A
C1114      H1119   1.080       .  S
C1115      C1116   1.408       .  A
C1116      F1117   1.358       .  S
C1121      C1122   1.398       .  A
C1121      C1126   1.390       .  A
C1121      H1128   1.084       .  S
C1122      C1123   1.404       .  A
C1123      C1124   1.397       .  A
C1123      F1130   1.358       .  S
C1124      C1125   1.411       .  A
C1124      H1129   1.081       .  S
C1125      C1126   1.416       .  A
C1126      F1127   1.351       .  S
C1131      C1132   1.409       .  A
C1131      C1136   1.407       .  A
C1131      H1138   1.083       .  S
C1132      C1133   1.413       .  A
C1133      C1134   1.397       .  A
C1133      F1140   1.358       .  S
C1134      C1135   1.405       .  A
C1134      H1139   1.083       .  S
C1135      C1136   1.409       .  A
C1136      F1137   1.354       .  S
C1141      C1142   1.398       .  A
C1141      C1146   1.395       .  A
C1141      H1148   1.084       .  S
C1142      C1143   1.400       .  A
C1143      C1144   1.395       .  A
C1143      F1150   1.357       .  S
C1144      C1145   1.403       .  A
C1144      H1149   1.083       .  S
C1145      C1146   1.410       .  A
C1146      F1147   1.358       .  S
C1151      C1152   1.400       .  A
C1151      C1156   1.400       .  A
C1151      H1158   1.083       .  S
C1152      C1153   1.406       .  A
C1153      C1154   1.400       .  A
C1153      F1160   1.355       .  S
C1154      C1155   1.406       .  A
C1154      H1159   1.083       .  S
C1155      C1156   1.412       .  A
C1156      F1157   1.357       .  S
C1161      C1162   1.405       .  A
C1161      C1166   1.401       .  A
C1161      H1168   1.083       .  S
C1162      C1163   1.413       .  A
C1163      C1164   1.401       .  A
C1163      F1170   1.357       .  S
C1164      C1165   1.399       .  A
C1164      H1169   1.083       .  S
C1165      C1166   1.407       .  A
C1166      F1167   1.355       .  S
C1171      C1172   1.398       .  A
C1171      C1176   1.396       .  A
C1171      H1178   1.083       .  S
C1172      C1173   1.401       .  A
C1173      C1174   1.397       .  A
C1173      F1180   1.358       .  S
C1174      C1175   1.407       .  A
C1174      H1179   1.083       .  S
C1175      C1176   1.410       .  A
C1176      F1177   1.358       .  S
C1181      C1182   1.409   1_455  A
C1181      C1186   1.397       .  A
C1181      H1188   1.078       .  S
C1182      C1183   1.413       .  A
C1183      C1184   1.395       .  A
C1183      F1190   1.357       .  S
C1184      C1185   1.403       .  A
C1184      H1189   1.083       .  S
C1185      C1186   1.411   1_655  A
C1186      F1187   1.358       .  S
C1191      C1192   1.406   1_455  A
C1191      C1196   1.393       .  A
C1191      H1198   1.083       .  S
C1192      C1193   1.405       .  A
C1193      C1194   1.396       .  A
C1193      F1200   1.357       .  S
C1194      C1195   1.410       .  A
C1194      H1199   1.076       .  S
C1195      C1196   1.411   1_655  A
C1196      F1197   1.359       .  S
C1201      C1202   1.410       .  A
C1201      C1206   1.404       .  A
C1201      H1208   1.083       .  S
C1202      C1203   1.411       .  A
C1203      C1204   1.399       .  A
C1203      F1210   1.357       .  S
C1204      C1205   1.401       .  A
C1204      H1209   1.083       .  S
C1205      C1206   1.402       .  A
C1206      F1207   1.357       .  S
C1211      C1212   1.411       .  A
C1211      C1216   1.400       .  A
C1211      H1218   1.083       .  S
C1212      C1213   1.410       .  A
C1213      C1214   1.400       .  A
C1213      F1220   1.358       .  S
C1214      C1215   1.402       .  A
C1214      H1219   1.078       .  S
C1215      C1216   1.401       .  A
C1216      F1217   1.357       .  S
C1221      C1222   1.410       .  A
C1221      C1226   1.403       .  A
C1221      H1228   1.083       .  S
C1222      C1223   1.411       .  A
C1223      C1224   1.402       .  A
C1223      F1230   1.357       .  S
C1224      C1225   1.403       .  A
C1224      H1229   1.081       .  S
C1225      C1226   1.403       .  A
C1226      F1227   1.358       .  S
C1231      C1232   1.398       .  A
C1231      C1236   1.395       .  A
C1231      H1238   1.083       .  S
C1232      C1233   1.400       .  A
C1233      C1234   1.394       .  A
C1233      F1240   1.358       .  S
C1234      C1235   1.407       .  A
C1234      H1239   1.083       .  S
C1235      C1236   1.408       .  A
C1236      F1237   1.357       .  S
C1241      C1242   1.408       .  A
C1241      C1246   1.397       .  A
C1241      H1248   1.083       .  S
C1242      C1243   1.413       .  A
C1243      C1244   1.404       .  A
C1243      F1250   1.356       .  S
C1244      C1245   1.404       .  A
C1244      H1249   1.082       .  S
C1245      C1246   1.408       .  A
C1246      F1247   1.358       .  S
C1251      C1252   1.405       .  A
C1251      C1256   1.397       .  A
C1251      H1258   1.083       .  S
C1252      C1253   1.405       .  A
C1253      C1254   1.392       .  A
C1253      F1260   1.358       .  S
C1254      C1255   1.407       .  A
C1254      H1259   1.079       .  S
C1255      C1256   1.409       .  A
C1256      F1257   1.356       .  S
C1261      C1262   1.402       .  A
C1261      C1266   1.394       .  A
C1261      H1268   1.083       .  S
C1262      C1263   1.405       .  A
C1263      C1264   1.393       .  A
C1263      F1270   1.358       .  S
C1264      C1265   1.404       .  A
C1264      H1269   1.080       .  S
C1265      C1266   1.412       .  A
C1266      F1267   1.358       .  S
C1271      C1272   1.405       .  A
C1271      C1276   1.397       .  A
C1271      H1278   1.083       .  S
C1272      C1273   1.411       .  A
C1273      C1274   1.401       .  A
C1273      F1280   1.355       .  S
C1274      C1275   1.406       .  A
C1274      H1279   1.083       .  S
C1275      C1276   1.411       .  A
C1276      F1277   1.357       .  S
C1281      C1282   1.410       .  A
C1281      C1286   1.388       .  A
C1281      H1288   1.075       .  S
C1282      C1283   1.409       .  A
C1283      C1284   1.386       .  A
C1283      F1290   1.358       .  S
C1284      C1285   1.402       .  A
C1284      H1289   1.083       .  S
C1285      C1286   1.402       .  A
C1286      F1287   1.358       .  S
C1291      C1292   1.406       .  A
C1291      C1296   1.389       .  A
C1291      H1298   1.083       .  S
C1292      C1293   1.409       .  A
C1293      C1294   1.410       .  A
C1293      F1300   1.357       .  S
C1294      C1295   1.407       .  A
C1294      H1299   1.083       .  S
C1295      C1296   1.401       .  A
C1296      F1297   1.358       .  S
C1301      C1302   1.413       .  A
C1301      C1306   1.400       .  A
C1301      H1308   1.078       .  S
C1302      C1303   1.414       .  A
C1303      C1304   1.406       .  A
C1303      F1310   1.358       .  S
C1304      C1305   1.409       .  A
C1304      H1309   1.083       .  S
C1305      C1306   1.407       .  A
C1306      F1307   1.357       .  S
C1311      C1312   1.409       .  A
C1311      C1316   1.394       .  A
C1311      H1318   1.083       .  S
C1312      C1313   1.405       .  A
C1313      C1314   1.403       .  A
C1313      F1320   1.357       .  S
C1314      C1315   1.405       .  A
C1314      H1319   1.084       .  S
C1315      C1316   1.399       .  A
C1316      F1317   1.358       .  S
C1321      C1322   1.406       .  A
C1321      C1326   1.395       .  A
C1321      H1328   1.077       .  S
C1322      C1323   1.417   1_556  A
C1323      C1324   1.396       .  A
C1323      F1330   1.359       .  S
C1324      C1325   1.399       .  A
C1324      H1329   1.083       .  S
C1325      C1326   1.407   1_554  A
C1326      F1327   1.358       .  S
C1331      C1332   1.406   1_554  A
C1331      C1336   1.388   1_554  A
C1331      H1338   1.084       .  S
C1332      C1333   1.408       .  A
C1333      C1334   1.409       .  A
C1333      F1340   1.356       .  S
C1334      C1335   1.407       .  A
C1334      H1339   1.083       .  S
C1335      C1336   1.402       .  A
C1336      F1337   1.359   1_556  S
C1341      C1342   1.409       .  A
C1341      C1346   1.398       .  A
C1341      H1348   1.079       .  S
C1342      C1343   1.414   1_554  A
C1343      C1344   1.400       .  A
C1343      F1350   1.357       .  S
C1344      C1345   1.406   1_556  A
C1344      H1349   1.083       .  S
C1345      C1346   1.411       .  A
C1346      F1347   1.357       .  S
C1351      C1352   1.403   1_554  A
C1351      C1356   1.404       .  A
C1351      H1358   1.083       .  S
C1352      C1353   1.409       .  A
C1353      C1354   1.395       .  A
C1353      F1360   1.358       .  S
C1354      C1355   1.398       .  A
C1354      H1359   1.084       .  S
C1355      C1356   1.409   1_556  A
C1356      F1357   1.357       .  S
C1361      C1362   1.408       .  A
C1361      C1366   1.397       .  A
C1361      H1368   1.080       .  S
C1362      C1363   1.414       .  A
C1363      C1364   1.399       .  A
C1363      F1370   1.357       .  S
C1364      C1365   1.405       .  A
C1364      H1369   1.083       .  S
C1365      C1366   1.411       .  A
C1366      F1367   1.357       .  S
C1371      C1372   1.399       .  A
C1371      C1376   1.396       .  A
C1371      H1378   1.084       .  S
C1372      C1373   1.407       .  A
C1373      C1374   1.398       .  A
C1373      F1380   1.358       .  S
C1374      C1375   1.400       .  A
C1374      H1379   1.084       .  S
C1375      C1376   1.405       .  A
C1376      F1377   1.358       .  S
C1381      C1382   1.408       .  A
C1381      C1386   1.399       .  A
C1381      H1388   1.083       .  S
C1382      C1383   1.406   1_556  A
C1383      C1384   1.398       .  A
C1383      F1390   1.358       .  S
C1384      C1385   1.413   1_554  A
C1384      H1389   1.083       .  S
C1385      C1386   1.414       .  A
C1386      F1387   1.353       .  S
C1391      C1392   1.400   1_556  A
C1391      C1396   1.400       .  A
C1391      H1398   1.084       .  S
C1392      C1393   1.407       .  A
C1393      C1394   1.401       .  A
C1393      F1400   1.358       .  S
C1394      C1395   1.402       .  A
C1394      H1399   1.083       .  S
C1395      C1396   1.407   1_554  A
C1396      F1397   1.358       .  S
C1401      C1402   1.401       .  A
C1401      C1406   1.397       .  A
C1401      H1408   1.083       .  S
C1402      C1403   1.405   1_556  A
C1403      C1404   1.389       .  A
C1403      F1410   1.358       .  S
C1404      C1405   1.407       .  A
C1404      H1409   1.076       .  S
C1405      C1406   1.415   1_554  A
C1406      F1407   1.358       .  S
C1411      C1412   1.412       .  A
C1411      C1416   1.390       .  A
C1411      H1418   1.083   1_554  S
C1412      C1413   1.400       .  A
C1413      C1414   1.404       .  A
C1413      F1420   1.357       .  S
C1414      C1415   1.414       .  A
C1414      H1419   1.083       .  S
C1415      C1416   1.396       .  A
C1416      F1417   1.358   1_554  S
C1421      C1422   1.405       .  A
C1421      C1426   1.390       .  A
C1421      H1428   1.077       .  S
C1422      C1423   1.416   1_545  A
C1423      C1424   1.395       .  A
C1423      F1430   1.358       .  S
C1424      C1425   1.397   1_565  A
C1424      H1429   1.083       .  S
C1425      C1426   1.407       .  A
C1426      F1427   1.359       .  S
C1431      C1432   1.408       .  A
C1431      C1436   1.404       .  A
C1431      H1438   1.083       .  S
C1432      C1433   1.410   1_545  A
C1433      C1434   1.400       .  A
C1433      F1440   1.357       .  S
C1434      C1435   1.410   1_565  A
C1434      H1439   1.082       .  S
C1435      C1436   1.416       .  A
C1436      F1437   1.356       .  S
C1441      C1442   1.405       .  A
C1441      C1446   1.390       .  A
C1441      H1448   1.083       .  S
C1442      C1443   1.413       .  A
C1443      C1444   1.402       .  A
C1443      F1450   1.357       .  S
C1444      C1445   1.403       .  A
C1444      H1449   1.082       .  S
C1445      C1446   1.408       .  A
C1446      F1447   1.358       .  S
C1451      C1452   1.406       .  A
C1451      C1456   1.396       .  A
C1451      H1458   1.082       .  S
C1452      C1453   1.411       .  A
C1453      C1454   1.396       .  A
C1453      F1460   1.355       .  S
C1454      C1455   1.403       .  A
C1454      H1459   1.083       .  S
C1455      C1456   1.407       .  A
C1456      F1457   1.357       .  S
C1461      C1462   1.413       .  A
C1461      C1466   1.406       .  A
C1461      H1468   1.083       .  S
C1462      C1463   1.411       .  A
C1463      C1464   1.405       .  A
C1463      F1470   1.358       .  S
C1464      C1465   1.405       .  A
C1464      H1469   1.079       .  S
C1465      C1466   1.403       .  A
C1466      F1467   1.357       .  S
C1471      C1472   1.404       .  A
C1471      C1476   1.392       .  A
C1471      H1478   1.078       .  S
C1472      C1473   1.415       .  A
C1473      C1474   1.391       .  A
C1473      F1480   1.358       .  S
C1474      C1475   1.396       .  A
C1474      H1479   1.083       .  S
C1475      C1476   1.410       .  A
C1476      F1477   1.357       .  S
C1481      C1482   1.408       .  A
C1481      C1486   1.400       .  A
C1481      H1488   1.078       .  S
C1482      C1483   1.415       .  A
C1483      C1484   1.402       .  A
C1483      F1490   1.358       .  S
C1484      C1485   1.405       .  A
C1484      H1489   1.083       .  S
C1485      C1486   1.413       .  A
C1486      F1487   1.357       .  S
C1491      C1492   1.409       .  A
C1491      C1496   1.405       .  A
C1491      H1498   1.083       .  S
C1492      C1493   1.412       .  A
C1493      C1494   1.391       .  A
C1493      F1500   1.357       .  S
C1494      C1495   1.401       .  A
C1494      H1499   1.083       .  S
C1495      C1496   1.409       .  A
C1496      F1497   1.355       .  S
C1501      C1502   1.409       .  A
C1501      C1506   1.395       .  A
C1501      H1508   1.083       .  S
C1502      C1503   1.411       .  A
C1503      C1504   1.398       .  A
C1503      F1510   1.358       .  S
C1504      C1505   1.400       .  A
C1504      H1509   1.081       .  S
C1505      C1506   1.400       .  A
C1506      F1507   1.357       .  S
C1511      C1512   1.397       .  A
C1511      C1516   1.393       .  A
C1511      H1518   1.083       .  S
C1512      C1513   1.399       .  A
C1513      C1514   1.396       .  A
C1513      F1520   1.358       .  S
C1514      C1515   1.407       .  A
C1514      H1519   1.083       .  S
C1515      C1516   1.410       .  A
C1516      F1517   1.357       .  S
C1521      C1522   1.397       .  A
C1521      C1526   1.396       .  A
C1521      H1528   1.082       .  S
C1522      C1523   1.403       .  A
C1523      C1524   1.402       .  A
C1523      F1530   1.358       .  S
C1524      C1525   1.408       .  A
C1524      H1529   1.082       .  S
C1525      C1526   1.415       .  A
C1526      F1527   1.357       .  S
C1531      C1532   1.409       .  A
C1531      C1536   1.394       .  A
C1531      H1538   1.078       .  S
C1532      C1533   1.410       .  A
C1533      C1534   1.393       .  A
C1533      F1540   1.358       .  S
C1534      C1535   1.405       .  A
C1534      H1539   1.083       .  S
C1535      C1536   1.408       .  A
C1536      F1537   1.357       .  S
C1541      C1542   1.402       .  A
C1541      C1546   1.392       .  A
C1541      H1548   1.080       .  S
C1542      C1543   1.408       .  A
C1543      C1544   1.397       .  A
C1543      F1550   1.358       .  S
C1544      C1545   1.405       .  A
C1544      H1549   1.083       .  S
C1545      C1546   1.407       .  A
C1546      F1547   1.358       .  S
C1551      C1552   1.391       .  A
C1551      C1556   1.390       .  A
C1551      H1558   1.084       .  S
C1552      C1553   1.413       .  A
C1553      C1554   1.403       .  A
C1553      F1560   1.358       .  S
C1554      C1555   1.401       .  A
C1554      H1559   1.083       .  S
C1555      C1556   1.419       .  A
C1556      F1557   1.357       .  S
C1561      C1562   1.408   1_565  A
C1561      C1566   1.397       .  A
C1561      H1568   1.080       .  S
C1562      C1563   1.413       .  A
C1563      C1564   1.397       .  A
C1563      F1570   1.357       .  S
C1564      C1565   1.404       .  A
C1564      H1569   1.083       .  S
C1565      C1566   1.411   1_545  A
C1566      F1567   1.358       .  S
C1571      C1572   1.408   1_565  A
C1571      C1576   1.390       .  A
C1571      H1578   1.077       .  S
C1572      C1573   1.413       .  A
C1573      C1574   1.392       .  A
C1573      F1580   1.358       .  S
C1574      C1575   1.399       .  A
C1574      H1579   1.083       .  S
C1575      C1576   1.405   1_545  A
C1576      F1577   1.359       .  S
C1581      C1582   1.406       .  A
C1581      C1586   1.398       .  A
C1581      H1588   1.083       .  S
C1582      C1583   1.409       .  A
C1583      C1584   1.397       .  A
C1583      F1590   1.358       .  S
C1584      C1585   1.406       .  A
C1584      H1589   1.078       .  S
C1585      C1586   1.409       .  A
C1586      F1587   1.357       .  S
C1591      C1592   1.409       .  A
C1591      C1596   1.400       .  A
C1591      H1598   1.083       .  S
C1592      C1593   1.411       .  A
C1593      C1594   1.403       .  A
C1593      F1600   1.358       .  S
C1594      C1595   1.404       .  A
C1594      H1599   1.081       .  S
C1595      C1596   1.402       .  A
C1596      F1597   1.357       .  S
C1601      C1602   1.403       .  A
C1601      C1606   1.400       .  A
C1601      H1608   1.083       .  S
C1602      C1603   1.402       .  A
C1603      C1604   1.402       .  A
C1603      F1610   1.357       .  S
C1604      C1605   1.410       .  A
C1604      H1609   1.083       .  S
C1605      C1606   1.407       .  A
C1606      F1607   1.357       .  S
C1611      C1612   1.407       .  A
C1611      C1616   1.396       .  A
C1611      H1618   1.083       .  S
C1612      C1613   1.411       .  A
C1613      C1614   1.395       .  A
C1613      F1620   1.358       .  S
C1614      C1615   1.399       .  A
C1614      H1619   1.083       .  S
C1615      C1616   1.400       .  A
C1616      F1617   1.357       .  S
C1621      C1622   1.411       .  A
C1621      C1626   1.400       .  A
C1621      H1628   1.077       .  S
C1622      C1623   1.413       .  A
C1623      C1624   1.399       .  A
C1623      F1630   1.358       .  S
C1624      C1625   1.405       .  A
C1624      H1629   1.083       .  S
C1625      C1626   1.410       .  A
C1626      F1627   1.358       .  S
C1631      C1632   1.413       .  A
C1631      C1636   1.401       .  A
C1631      H1638   1.076       .  S
C1632      C1633   1.411       .  A
C1633      C1634   1.394       .  A
C1633      F1640   1.358       .  S
C1634      C1635   1.406       .  A
C1634      H1639   1.083       .  S
C1635      C1636   1.408       .  A
C1636      F1637   1.357       .  S
C1641      C1642   1.406       .  A
C1641      C1646   1.395       .  A
C1641      H1648   1.083       .  S
C1642      C1643   1.413       .  A
C1643      C1644   1.397       .  A
C1643      F1650   1.358       .  S
C1644      C1645   1.402       .  A
C1644      H1649   1.084       .  S
C1645      C1646   1.404       .  A
C1646      F1647   1.357       .  S
C1651      C1652   1.408       .  A
C1651      C1656   1.395       .  A
C1651      H1658   1.083       .  S
C1652      C1653   1.414       .  A
C1653      C1654   1.408       .  A
C1653      F1660   1.358       .  S
C1654      C1655   1.408       .  A
C1654      H1659   1.082       .  S
C1655      C1656   1.404       .  A
C1656      F1657   1.357       .  S
C1661      C1662   1.404       .  A
C1661      C1666   1.401       .  A
C1661      H1668   1.083       .  S
C1662      C1663   1.412       .  A
C1663      C1664   1.401       .  A
C1663      F1670   1.357       .  S
C1664      C1665   1.408       .  A
C1664      H1669   1.082       .  S
C1665      C1666   1.417       .  A
C1666      F1667   1.352       .  S
C1671      C1672   1.400       .  A
C1671      C1676   1.399       .  A
C1671      H1678   1.083       .  S
C1672      C1673   1.402       .  A
C1673      C1674   1.393       .  A
C1673      F1680   1.358       .  S
C1674      C1675   1.404       .  A
C1674      H1679   1.084       .  S
C1675      C1676   1.409       .  A
C1676      F1677   1.358       .  S
