geometry optimzed in LAMMPS
_audit_creation_date              2020-11-30 
_audit_creation_method            'lammps2cif' 
_symmetry_space_group_name_H-M    'P1' 
_symmetry_Int_Tables_number       1 
_symmetry_cell_setting            triclinic 
loop_ 
_symmetry_equiv_pos_as_xyz 
  x,y,z 
_cell_length_a                    38.950230150181426 
_cell_length_b                    38.975097334437 
_cell_length_c                    25.70545485869867 
_cell_angle_alpha                 90.21311874611013 
_cell_angle_beta                  90.02253645149808 
_cell_angle_gamma                 119.81065796511629 
loop_ 
_atom_site_label 
_atom_site_type_symbol 
_atom_site_fract_x 
_atom_site_fract_y 
_atom_site_fract_z 
_atom_site_charge 
O1          O  0.03051729  0.21653982  0.47115072    -0.57270
C2          C  0.99427149  0.09703698  0.36433544     0.75360
O3          O  0.47763642  0.11006235  0.47985973    -0.58420
C4          C  0.49754810  0.21309243  0.48544394     0.75340
C5          C  0.00330176  0.21200804  0.34248391     0.77730
Cd6        Cd  0.00007910  0.15937448  0.41686820     1.37470
O7          O  0.02285458  0.13153535  0.35562715    -0.57260
O8          O  0.03499899  0.21352975  0.35894045    -0.56070
C9          C  0.50656565  0.10427523  0.47213377     0.77690
O10         O  0.47034421  0.18223977  0.35601061    -0.58440
O11         O  0.96096360  0.09483260  0.37264327    -0.56900
O12         O  0.46557435  0.18170488  0.47272653    -0.56890
O13         O  0.53962528  0.13535135  0.46360833    -0.56060
O14         O  0.46878889  0.34259609  0.22828798    -0.57270
C15         C  0.50616618  0.45751778  0.11491745     0.75360
O16         O  0.02408531  0.44649586  0.22942897    -0.58420
C17         C  0.50090419  0.34345411  0.24086711     0.75340
C18         C  0.49494273  0.33960188  0.09805714     0.77730
Cd19       Cd  0.49979845  0.39550393  0.16887927     1.37460
O20         O  0.47701381  0.42304057  0.10722340    -0.57260
O21         O  0.46345868  0.33801803  0.11554267    -0.56070
C22         C  0.99517225  0.45245765  0.22235702     0.77690
O23         O  0.02823324  0.37009566  0.10869936    -0.58440
O24         O  0.53922469  0.45914839  0.12330326    -0.56900
O25         O  0.03335715  0.37283531  0.22497863    -0.56890
O26         O  0.96171834  0.42151527  0.21473938    -0.56060
O27         O  0.10604394  0.10954261  0.27517232    -0.57270
C28         C  0.18291114  0.21598580  0.40733718     0.75360
O29         O  0.15444967  0.21451232  0.27684502    -0.58420
C30         C  0.07121009  0.10374442  0.28186089     0.75340
C31         C  0.07684068  0.09868529  0.38918156     0.77730
Cd32       Cd  0.13245702  0.16080033  0.33552668     1.37470
O33         O  0.18630283  0.18593513  0.39536329    -0.57260
O34         O  0.10827527  0.09700261  0.38099997    -0.56070
C35         C  0.18550204  0.21342028  0.26376504     0.77690
O36         O  0.08199374  0.13319597  0.39648516    -0.58440
O37         O  0.15252153  0.21711044  0.39080437    -0.56900
O38         O  0.06867640  0.13479535  0.28918003    -0.56890
O39         O  0.18857690  0.18390430  0.27941157    -0.56060
O40         O  0.31501693  0.37314994  0.14468670    -0.57190
C41         C  0.43050714  0.45243105  0.03162645     0.75360
O42         O  0.41929899  0.42422157  0.14759232    -0.58420
C43         C  0.31810272  0.34327961  0.15845573     0.75340
C44         C  0.31441363  0.34321163  0.01621196     0.77730
Cd45       Cd  0.36901413  0.39684697  0.08589264     1.37470
O46         O  0.39584547  0.44683740  0.02405612    -0.57260
O47         O  0.31273938  0.37402953  0.02948858    -0.56070
C48         C  0.42508218  0.45880879  0.13934270     0.77690
O49         O  0.34478791  0.34099657  0.02987765    -0.58440
O50         O  0.43261228  0.42127489  0.03971462    -0.56900
O51         O  0.34864392  0.34196583  0.14313653    -0.56890
O52         O  0.39397888  0.46104108  0.13102818    -0.56060
O53         O  0.34544052  0.06107757  0.05747470    -0.57270
C54         C  0.42498461  0.02249647  0.44833804     0.75360
O55         O  0.39633385  0.50570690  0.06397320    -0.58420
C56         C  0.31590985  0.02879857  0.07311758     0.75340
C57         C  0.31525252  0.02838115  0.43190755     0.77730
Cd58       Cd  0.36879377  0.02821526  0.00200573     1.37470
O59         O  0.41908001  0.05135753  0.44076425    -0.57260
O60         O  0.34602273  0.06083198  0.44484108    -0.56070
C61         C  0.43090581  0.53444458  0.05580093     0.77690
O62         O  0.31308973  0.99585841  0.44561236    -0.58440
O63         O  0.39397847  0.98926918  0.45640145    -0.56900
O64         O  0.31465304  0.99627325  0.06125498    -0.56890
O65         O  0.43291635  0.06758494  0.04717585    -0.56060
O66         O  0.18543945  0.05640102  0.19073520    -0.57270
C67         C  0.07083323  0.02179597  0.30588142     0.75360
O68         O  0.08253269  0.50534517  0.18948521    -0.58420
C69         C  0.18332965  0.02327630  0.18055183     0.75340
C70         C  0.18880649  0.03267747  0.32123038     0.77730
Cd71       Cd  0.13273899  0.02823096  0.25164206     1.37460
O72         O  0.10530952  0.05049833  0.31493443    -0.57260
O73         O  0.18999846  0.06439458  0.30560179    -0.56070
C74         C  0.07668212  0.53415338  0.19801441     0.77690
O75         O  0.15830426  0.99953159  0.31014896    -0.58440
O76         O  0.06895051  0.98873477  0.29672228    -0.56900
O77         O  0.15381107  0.99179135  0.19823483    -0.56890
O78         O  0.10771426  0.06734206  0.20659396    -0.56060
C79         C  0.49732274  0.48823404  0.13807123     0.01110
C80         C  0.46456878  0.48861317  0.11586912     0.01110
C81         C  0.46091630  0.49193849  0.05482470     0.01110
C82         C  0.46103530  0.52485280  0.03256392     0.01110
C83         C  0.03720155  0.52465941  0.22152199     0.01110
C84         C  0.00439142  0.49187113  0.19912281     0.01110
C85         C  0.04092836  0.06437437  0.30500916     0.01110
C86         C  0.04078675  0.03145636  0.28257235     0.01110
C87         C  0.46458109  0.03182165  0.47157931     0.01110
C88         C  0.49737370  0.06455009  0.44925157     0.01110
C89         C  0.00428035  0.06751739  0.38821098     0.01110
C90         C  0.03744589  0.06793607  0.36606574     0.01110
C91         C  0.21300090  0.00857080  0.39278123    -0.19760
C92         C  0.22197527  0.03357011  0.34984413    -0.06320
C93         C  0.26180037  0.05608794  0.33306055     0.14550
C94         C  0.29154371  0.05395743  0.36111884    -0.19810
C95         C  0.28249141  0.02877023  0.40388819    -0.06330
C96         C  0.24265236  0.00623617  0.42060612     0.14530
C97         C  0.23000492  0.98089063  0.46881240    -0.23160
H98         H  0.18249081  0.99113979  0.40538605     0.15820
H99         H  0.32204841  0.07127531  0.34848387     0.15850
C100        C  0.27423122  0.08085347  0.28435070    -0.23110
H101        H  0.21004704  0.94951518  0.45770053     0.06060
H102        H  0.21370101  0.99055773  0.49497401     0.09290
H103        H  0.25480268  0.48274355  0.49178855     0.09290
H104        H  0.24931283  0.07867423  0.26127548     0.09270
H105        H  0.29047508  0.07090942  0.25851114     0.09270
H106        H  0.29418546  0.11235925  0.29484772     0.06050
C107        C  0.23475749  0.05053561  0.11263383    -0.19760
C108        C  0.21546742  0.02225562  0.15147175    -0.06320
C109        C  0.23021955  0.99690367  0.16574351     0.14550
C110        C  0.26345539  0.00015038  0.14000776    -0.19810
C111        C  0.28290900  0.02866534  0.10145600    -0.06330
C112        C  0.26814906  0.05402814  0.08723614     0.14530
C113        C  0.28638871  0.08393272  0.04416159    -0.23160
H114        H  0.22360298  0.07014262  0.10214454     0.15820
H115        H  0.27467225  0.98059885  0.15048929     0.15850
C116        C  0.21236686  0.96761867  0.20952653    -0.23110
H117        H  0.26961779  0.09961211  0.03673156     0.06060
H118        H  0.28654721  0.06888966  0.00752332     0.09290
H119        H  0.31706282  0.10657938  0.05478026     0.09290
H120        H  0.18143183  0.44514630  0.19980102     0.09270
H121        H  0.21298596  0.98328296  0.24599007     0.09270
H122        H  0.22893797  0.95171252  0.21677763     0.06050
C123        C  0.25334225  0.24498984  0.22724968    -0.19760
C124        C  0.21822430  0.24630170  0.23455984    -0.06320
C125        C  0.21692571  0.28035863  0.21809839     0.14550
C126        C  0.25055340  0.31165488  0.19532110    -0.19810
C127        C  0.28563896  0.31033211  0.18788795    -0.06330
C128        C  0.28695160  0.27628689  0.20425417     0.14530
C129        C  0.32334357  0.27226264  0.19819647    -0.23160
H130        H  0.25480511  0.21930159  0.24015499     0.15820
H131        H  0.24903413  0.33731910  0.18242021     0.15850
C132        C  0.18051633  0.28445972  0.22364111    -0.23110
H133        H  0.31923216  0.24434885  0.21535797     0.06060
H134        H  0.34885522  0.29712567  0.21833088     0.09290
H135        H  0.33015264  0.27185381  0.15636796     0.09290
H136        H  0.17326473  0.28468069  0.26531695     0.09270
H137        H  0.15518179  0.25976651  0.20302726     0.09270
H138        H  0.18481840  0.31248398  0.20661134     0.06050
C139        C  0.23517937  0.24030442  0.47457955    -0.19760
C140        C  0.21448593  0.24905449  0.43724689    -0.06320
C141        C  0.22724101  0.28909332  0.42529047     0.14550
C142        C  0.26020421  0.31919258  0.45132708    -0.19810
C143        C  0.28122359  0.31037599  0.48809320    -0.06330
C144        C  0.26817943  0.27033967  0.50045717     0.14530
C145        C  0.28777587  0.25882931  0.04227101    -0.23160
H146        H  0.22543831  0.20962866  0.48351745     0.15820
H147        H  0.27004638  0.34987797  0.44234161     0.15850
C148        C  0.20765405  0.30043046  0.38343247    -0.23110
H149        H  0.27214536  0.22635620  0.04859531     0.06060
H150        H  0.28759357  0.27307077  0.07964892     0.09290
H151        H  0.31864227  0.26799559  0.03103605     0.09290
H152        H  0.17649650  0.29043887  0.39410986     0.09270
H153        H  0.20864039  0.28674858  0.34593375     0.09270
H154        H  0.22277719  0.33295471  0.37773608     0.06050
C155        C  0.46759212  0.24381585  0.30533801    -0.19760
C156        C  0.00389948  0.24494537  0.31272846    -0.06320
C157        C  0.03926587  0.27935462  0.29773989     0.14550
C158        C  0.03706327  0.31124518  0.27623859    -0.19810
C159        C  0.50074193  0.31020456  0.26928241    -0.06330
C160        C  0.46538041  0.27576422  0.28435781     0.14530
C161        C  0.42494298  0.27182570  0.27898105    -0.23160
H162        H  0.44040511  0.21789800  0.31727325     0.15820
H163        H  0.06420341  0.33720900  0.26430903     0.15850
C164        C  0.07958617  0.28324033  0.30401440    -0.23110
H165        H  0.40121658  0.24343115  0.29495893     0.06060
H166        H  0.41778380  0.27254317  0.23736888     0.09290
H167        H  0.42404562  0.29604573  0.30068462     0.09290
H168        H  0.08047644  0.25862524  0.28336011     0.09270
H169        H  0.08647993  0.28310259  0.34587057     0.09270
H170        H  0.10339399  0.31137624  0.28755152     0.06050
C171        C  0.01669363  0.31513540  0.02358964    -0.19760
C172        C  0.49348444  0.30655395  0.06835103    -0.06320
C173        C  0.47240945  0.26716612  0.08670147     0.14550
C174        C  0.47465053  0.23721385  0.05915482    -0.19810
C175        C  0.49817020  0.24589950  0.01465495    -0.06330
C176        C  0.01906265  0.28526270  0.99617380     0.14530
C177        C  0.03105817  0.29276410  0.43886695    -0.23160
H178        H  0.03292976  0.34541095  0.00992156     0.15820
H179        H  0.45861371  0.20697078  0.07296087     0.15850
C180        C  0.44928383  0.25685534  0.13668815    -0.23110
H181        H  0.04181922  0.32398950  0.42773640     0.06060
H182        H  0.50808450  0.27359338  0.41038911     0.09290
H183        H  0.05646185  0.28743861  0.43687500     0.09290
H184        H  0.42477245  0.26346987  0.13351761     0.09270
H185        H  0.96926083  0.27421411  0.16909472     0.09270
H186        H  0.43616876  0.22501235  0.14629751     0.06050
O187        O  0.03150975  0.21633666  0.97156939    -0.57270
C188        C  0.99435229  0.09711070  0.86442012     0.75360
O189        O  0.47752637  0.10985207  0.97998792    -0.58420
C190        C  0.49881733  0.21335395  0.98629844     0.75340
C191        C  0.00249011  0.21214157  0.84395202     0.77730
Cd192      Cd  0.00007834  0.15927066  0.91730115     1.37470
O193        O  0.02296646  0.13163583  0.85586901    -0.57260
O194        O  0.03428664  0.21338683  0.85937315    -0.56070
C195        C  0.50646927  0.10407806  0.97223863     0.77690
O196        O  0.46960968  0.18240646  0.85780815    -0.58440
O197        O  0.96103728  0.09489766  0.87268831    -0.56900
O198        O  0.46658804  0.18206814  0.97402882    -0.56890
O199        O  0.53955684  0.13514672  0.96382716    -0.56060
O200        O  0.46806020  0.34262000  0.72923962    -0.57270
C201        C  0.50589423  0.45721675  0.61504665     0.75360
O202        O  0.02402203  0.44645467  0.72929180    -0.58420
C203        C  0.50014937  0.34363581  0.74239673     0.75340
C204        C  0.49475014  0.33904736  0.59886460     0.77730
Cd205      Cd  0.49940459  0.39516699  0.66926626     1.37460
O206        O  0.47666065  0.42275585  0.60748851    -0.57260
O207        O  0.46323329  0.33738034  0.61634499    -0.56070
C208        C  0.99511038  0.45245212  0.72240600     0.77690
O209        O  0.02803393  0.36955811  0.60943202    -0.58440
O210        O  0.53889617  0.45873345  0.62347219    -0.56900
O211        O  0.03264555  0.37287112  0.72634965    -0.56890
O212        O  0.96159540  0.42153878  0.71496595    -0.56060
O213        O  0.10602705  0.10951063  0.77522979    -0.57270
C214        C  0.18288420  0.21592750  0.90744212     0.75360
O215        O  0.15443586  0.21445644  0.77693609    -0.58420
C216        C  0.07119383  0.10371646  0.78191273     0.75340
C217        C  0.07682781  0.09857889  0.88923123     0.77730
Cd218      Cd  0.13243858  0.16074081  0.83562526     1.37470
O219        O  0.18628816  0.18588609  0.89545466    -0.57260
O220        O  0.10825323  0.09689632  0.88096706    -0.56070
C221        C  0.18549745  0.21338059  0.76386150     0.77690
O222        O  0.08200249  0.13308369  0.89667974    -0.58440
O223        O  0.15248427  0.21703984  0.89092452    -0.56900
O224        O  0.06866123  0.13476412  0.78927578    -0.56890
O225        O  0.18858774  0.18387683  0.77952431    -0.56060
O226        O  0.31493127  0.37310846  0.64466564    -0.57190
C227        C  0.43047486  0.45252007  0.53166827     0.75360
O228        O  0.41917803  0.42424561  0.64777328    -0.58420
C229        C  0.31804331  0.34325762  0.65845906     0.75340
C230        C  0.31440518  0.34325089  0.51618381     0.77730
Cd231      Cd  0.36897271  0.39686850  0.58591724     1.37470
O232        O  0.39580881  0.44695187  0.52422058    -0.57260
O233        O  0.31270341  0.37404640  0.52950130    -0.56070
C234        C  0.42500430  0.45883128  0.63938653     0.77690
O235        O  0.34479128  0.34105197  0.52983495    -0.58440
O236        O  0.43257740  0.42135244  0.53968024    -0.56900
O237        O  0.34860623  0.34197462  0.64316374    -0.56890
O238        O  0.39391658  0.46107301  0.63099620    -0.56060
O239        O  0.34544511  0.06110835  0.55760657    -0.57270
C240        C  0.42491092  0.02236695  0.94823207     0.75360
O241        O  0.39649432  0.50594501  0.56417571    -0.58420
C242        C  0.31593101  0.02880824  0.57322719     0.75340
C243        C  0.31516969  0.02830786  0.93179033     0.77730
Cd244      Cd  0.36887828  0.02832071  0.50214117     1.37470
O245        O  0.41902305  0.05123451  0.94061154    -0.57260
O246        O  0.34596816  0.06074700  0.94468456    -0.56070
C247        C  0.43106125  0.53464667  0.55588714     0.77690
O248        O  0.31297698  0.99577574  0.94551704    -0.58440
O249        O  0.39389288  0.98915154  0.95630758    -0.56900
O250        O  0.31472710  0.99630600  0.56137421    -0.56890
O251        O  0.43307763  0.06777645  0.54714903    -0.56060
O252        O  0.18532848  0.05627190  0.69065825    -0.57270
C253        C  0.07076169  0.02171441  0.80581622     0.75360
O254        O  0.08244219  0.50535401  0.68922773    -0.58420
C255        C  0.18322493  0.02314910  0.68048388     0.75340
C256        C  0.18871924  0.03261045  0.82111468     0.77730
Cd257      Cd  0.13261780  0.02811438  0.75152363     1.37460
O258        O  0.10524847  0.05039326  0.81487337    -0.57260
O259        O  0.18990329  0.06431547  0.80544849    -0.56070
C260        C  0.07660924  0.53415413  0.69792497     0.77690
O261        O  0.15821636  0.99945747  0.81006171    -0.58440
O262        O  0.06884401  0.98864054  0.79662938    -0.56900
O263        O  0.15369826  0.99165979  0.69814690    -0.56890
O264        O  0.10765155  0.06731239  0.70660164    -0.56060
C265        C  0.49722503  0.48810639  0.63808331     0.01110
C266        C  0.46452438  0.48859697  0.61590488     0.01110
C267        C  0.46091920  0.49200011  0.55486889     0.01110
C268        C  0.46112871  0.52497530  0.53263051     0.01110
C269        C  0.03713816  0.52463498  0.72149185     0.01110
C270        C  0.00432502  0.49183513  0.69912609     0.01110
C271        C  0.04090380  0.06433867  0.80501631     0.01110
C272        C  0.04074106  0.03142047  0.78254188     0.01110
C273        C  0.46449435  0.03167996  0.97151197     0.01110
C274        C  0.49730037  0.06441218  0.94923846     0.01110
C275        C  0.00427248  0.06749359  0.88820712     0.01110
C276        C  0.03742182  0.06787759  0.86607276     0.01110
C277        C  0.21292291  0.00853544  0.89269420    -0.19760
C278        C  0.22189415  0.03352168  0.84974246    -0.06320
C279        C  0.26172004  0.05603712  0.83295815     0.14550
C280        C  0.29146344  0.05390455  0.86101633    -0.19810
C281        C  0.28241170  0.02872071  0.90379012    -0.06330
C282        C  0.24257478  0.00620303  0.92052231     0.14530
C283        C  0.22993017  0.98087609  0.96874573    -0.23160
H284        H  0.18241420  0.99111048  0.90530577     0.15820
H285        H  0.32196716  0.07121463  0.84837364     0.15850
C286        C  0.27415237  0.08079992  0.78424609    -0.23110
H287        H  0.20996963  0.94949660  0.95765456     0.06060
H288        H  0.21363037  0.99055529  0.99489599     0.09290
H289        H  0.25472926  0.48273790  0.99172686     0.09290
H290        H  0.24923592  0.07862423  0.76117071     0.09270
H291        H  0.29039298  0.07085150  0.75840754     0.09270
H292        H  0.29411026  0.11230561  0.79474078     0.06050
C293        C  0.23467707  0.05042984  0.61260882    -0.19760
C294        C  0.21538156  0.02214267  0.65143554    -0.06320
C295        C  0.23015638  0.99681662  0.66574179     0.14550
C296        C  0.26342401  0.00009831  0.64005133    -0.19810
C297        C  0.28288769  0.02862723  0.60151699    -0.06330
C298        C  0.26810114  0.05396139  0.58726181     0.14530
C299        C  0.28634887  0.08387977  0.54420402    -0.23160
H300        H  0.22350455  0.07001728  0.60209426     0.15820
H301        H  0.27465979  0.98056733  0.65055896     0.15850
C302        C  0.21229454  0.96752677  0.70951736    -0.23110
H303        H  0.26955452  0.09953073  0.53674081     0.06060
H304        H  0.28655437  0.06885487  0.50757238     0.09290
H305        H  0.31700526  0.10654825  0.55486135     0.09290
H306        H  0.18136941  0.44504210  0.69976474     0.09270
H307        H  0.21288203  0.98318364  0.74597360     0.09270
H308        H  0.22887961  0.95163837  0.71679591     0.06050
C309        C  0.25333799  0.24497707  0.72732614    -0.19760
C310        C  0.21820757  0.24626489  0.73463635    -0.06320
C311        C  0.21688121  0.28030107  0.71814298     0.14550
C312        C  0.25049181  0.31159932  0.69533445    -0.19810
C313        C  0.28559052  0.31030182  0.68790330    -0.06330
C314        C  0.28693135  0.27627775  0.70430214     0.14530
C315        C  0.32333795  0.27228091  0.69824896    -0.23160
H316        H  0.25482331  0.21930569  0.74025428     0.15820
H317        H  0.24894977  0.33724645  0.68241206     0.15850
C318        C  0.18045917  0.28437865  0.72368669    -0.23110
H319        H  0.31924895  0.24438082  0.71542870     0.06060
H320        H  0.34884339  0.29716131  0.71836868     0.09290
H321        H  0.33014006  0.27186331  0.65641944     0.09290
H322        H  0.17321899  0.28461471  0.76536425     0.09270
H323        H  0.15512727  0.25966666  0.70309436     0.09270
H324        H  0.18473870  0.31238808  0.70663468     0.06050
C325        C  0.23516676  0.24025764  0.97466427    -0.19760
C326        C  0.21445907  0.24900094  0.93734575    -0.06320
C327        C  0.22720510  0.28903765  0.92538854     0.14550
C328        C  0.26017945  0.31914147  0.95140212    -0.19810
C329        C  0.28121574  0.31033146  0.98815012    -0.06330
C330        C  0.26817546  0.27029699  0.00052235     0.14530
C331        C  0.28776698  0.25886678  0.54221720    -0.23160
H332        H  0.22543118  0.20958361  0.98360437     0.15820
H333        H  0.27001680  0.34982528  0.94241185     0.15850
C334        C  0.20759479  0.30036749  0.88355429    -0.23110
H335        H  0.27213720  0.22639215  0.54852940     0.06060
H336        H  0.28757056  0.27309980  0.57959643     0.09290
H337        H  0.31863823  0.26803972  0.53100034     0.09290
H338        H  0.17644149  0.29037200  0.89426065     0.09270
H339        H  0.20856516  0.28668447  0.84604864     0.09270
H340        H  0.22271082  0.33289124  0.87785537     0.06050
C341        C  0.46676572  0.24441966  0.80814794    -0.19760
C342        C  0.00301290  0.24531128  0.81489062    -0.06320
C343        C  0.03836917  0.27956810  0.79947493     0.14550
C344        C  0.03621790  0.31151364  0.77812735    -0.19810
C345        C  0.49995142  0.31062587  0.77148048    -0.06330
C346        C  0.46459555  0.27635805  0.78700539     0.14530
C347        C  0.42421763  0.27255707  0.78174833    -0.23160
H348        H  0.43959810  0.21861168  0.82040078     0.15820
H349        H  0.06334687  0.33732541  0.76582558     0.15850
C350        C  0.07864598  0.28323878  0.80508462    -0.23110
H351        H  0.40050410  0.24436098  0.79820645     0.06060
H352        H  0.41687737  0.27290299  0.74012394     0.09290
H353        H  0.42355729  0.29705373  0.80304298     0.09290
H354        H  0.07925499  0.25857100  0.78416578     0.09270
H355        H  0.08581299  0.28303909  0.84682479     0.09270
H356        H  0.10243079  0.31132617  0.78848354     0.06050
C357        C  0.01180021  0.31376026  0.52076751    -0.19760
C358        C  0.49320167  0.30600942  0.56920884    -0.06320
C359        C  0.47610368  0.26751990  0.59041543     0.14550
C360        C  0.47757208  0.23745714  0.56209791    -0.19810
C361        C  0.49646385  0.24532878  0.51383284    -0.06330
C362        C  0.01326084  0.28374136  0.49247136     0.14530
C363        C  0.04250203  0.29575864  0.94641823    -0.23160
H364        H  0.02490445  0.34336085  0.50486068     0.15820
H365        H  0.46475856  0.20792898  0.57815442     0.15850
C366        C  0.45822947  0.25855100  0.64397503    -0.23110
H367        H  0.05539902  0.32756365  0.93672293     0.06060
H368        H  0.52274570  0.27830926  0.91394983     0.09290
H369        H  0.06722361  0.28948427  0.94984632     0.09290
H370        H  0.43287107  0.26396034  0.64563734     0.09270
H371        H  0.98104270  0.27770228  0.67268169     0.09270
H372        H  0.44736187  0.22730463  0.65509342     0.06050
O373        O  0.03051644  0.71653944  0.47115240    -0.57270
C374        C  0.99426970  0.59703652  0.36433597     0.75360
O375        O  0.47763760  0.61006364  0.47986252    -0.58420
C376        C  0.49754701  0.71309182  0.48544488     0.75340
C377        C  0.00330308  0.71200891  0.34248568     0.77730
Cd378      Cd  0.00007930  0.65937453  0.41686924     1.37470
O379        O  0.02285242  0.63153458  0.35562534    -0.57260
O380        O  0.03500019  0.71353051  0.35894258    -0.56070
C381        C  0.50656620  0.60427586  0.47213490     0.77690
O382        O  0.47034540  0.68224061  0.35601190    -0.58440
O383        O  0.96096218  0.59483248  0.37264534    -0.56900
O384        O  0.46557346  0.68170436  0.47272658    -0.56890
O385        O  0.53962590  0.63535159  0.46360861    -0.56060
O386        O  0.46878978  0.84259658  0.22829002    -0.57270
C387        C  0.50616593  0.95751673  0.11491744     0.75360
O388        O  0.02408620  0.94649625  0.22942870    -0.58420
C389        C  0.50090518  0.84345459  0.24086852     0.75340
C390        C  0.49494194  0.83960114  0.09805880     0.77730
Cd391      Cd  0.49979861  0.89550366  0.16888041     1.37460
O392        O  0.47701328  0.92303946  0.10722486    -0.57260
O393        O  0.46345808  0.83801741  0.11554485    -0.56070
C394        C  0.99517310  0.95245804  0.22235710     0.77690
O395        O  0.02823259  0.87009491  0.10870049    -0.58440
O396        O  0.53922448  0.95914726  0.12330237    -0.56900
O397        O  0.03335800  0.87283558  0.22497932    -0.56890
O398        O  0.96171903  0.92151565  0.21474043    -0.56060
O399        O  0.10604337  0.60954228  0.27517396    -0.57270
C400        C  0.18291084  0.71598645  0.40733699     0.75360
O401        O  0.15444961  0.71451267  0.27684387    -0.58420
C402        C  0.07120950  0.60374438  0.28186138     0.75340
C403        C  0.07683976  0.59868681  0.38918163     0.77730
Cd404      Cd  0.13245675  0.66080112  0.33552629     1.37470
O405        O  0.18630218  0.68593553  0.39536345    -0.57260
O406        O  0.10827449  0.59700404  0.38100170    -0.56070
C407        C  0.18550188  0.71342033  0.26376417     0.77690
O408        O  0.08199260  0.63319768  0.39648267    -0.58440
O409        O  0.15252154  0.71711146  0.39080368    -0.56900
O410        O  0.06867596  0.63479550  0.28917950    -0.56890
O411        O  0.18857645  0.68390428  0.27941105    -0.56060
O412        O  0.31501781  0.87314934  0.14468599    -0.57190
C413        C  0.43050796  0.95243029  0.03162610     0.75360
O414        O  0.41929949  0.92422180  0.14759348    -0.58420
C415        C  0.31810351  0.84327904  0.15845542     0.75340
C416        C  0.31441490  0.84321105  0.01621194     0.77730
Cd417      Cd  0.36901529  0.89684637  0.08589268     1.37470
O418        O  0.39584617  0.94683625  0.02405567    -0.57260
O419        O  0.31274066  0.87402895  0.02948863    -0.56070
C420        C  0.42508265  0.95880883  0.13934246     0.77690
O421        O  0.34478911  0.84099590  0.02987777    -0.58440
O422        O  0.43261346  0.92127436  0.03971450    -0.56900
O423        O  0.34864483  0.84196524  0.14313682    -0.56890
O424        O  0.39397930  0.96104083  0.13102715    -0.56060
O425        O  0.34544436  0.56108339  0.05748170    -0.57270
C426        C  0.42498351  0.52249861  0.44834101     0.75360
O427        O  0.39633377  0.00570533  0.06397107    -0.58420
C428        C  0.31591336  0.52880479  0.07312503     0.75340
C429        C  0.31525254  0.52838700  0.43191508     0.77730
Cd430      Cd  0.36879431  0.52821930  0.00201050     1.37470
O431        O  0.41907981  0.55136036  0.44076842    -0.57260
O432        O  0.34602391  0.56083732  0.44484709    -0.56070
C433        C  0.43090544  0.03444333  0.05579849     0.77690
O434        O  0.31308855  0.49586385  0.44562046    -0.58440
O435        O  0.39397689  0.48927182  0.45640502    -0.56900
O436        O  0.31465514  0.49627896  0.06126155    -0.56890
O437        O  0.43291760  0.56758678  0.04717972    -0.56060
O438        O  0.18543998  0.55640474  0.19074057    -0.57270
C439        C  0.07083132  0.52179546  0.30588329     0.75360
O440        O  0.08253288  0.00534510  0.18948232    -0.58420
C441        C  0.18333180  0.52328069  0.18055764     0.75340
C442        C  0.18880625  0.53268175  0.32123624     0.77730
Cd443      Cd  0.13273858  0.52823265  0.25164570     1.37460
O444        O  0.10530720  0.55049775  0.31493844    -0.57260
O445        O  0.18999715  0.56439816  0.30560676    -0.56070
C446        C  0.07668282  0.03415347  0.19801269     0.77690
O447        O  0.15830501  0.49953522  0.31015432    -0.58440
O448        O  0.06894920  0.48873467  0.29672308    -0.56900
O449        O  0.15381358  0.49179506  0.19823983    -0.56890
O450        O  0.10771324  0.56734230  0.20659522    -0.56060
C451        C  0.49732315  0.98823362  0.13807068     0.01110
C452        C  0.46456929  0.98861294  0.11586855     0.01110
C453        C  0.46091687  0.99193797  0.05482405     0.01110
C454        C  0.46103572  0.02485207  0.03256275     0.01110
C455        C  0.03720249  0.02465962  0.22152095     0.01110
C456        C  0.00439217  0.99187127  0.19912222     0.01110
C457        C  0.04092735  0.56437456  0.30500985     0.01110
C458        C  0.04078534  0.53145621  0.28257340     0.01110
C459        C  0.46458015  0.53182251  0.47158065     0.01110
C460        C  0.49737303  0.56455044  0.44925246     0.01110
C461        C  0.00427929  0.56751753  0.38821183     0.01110
C462        C  0.03744505  0.56793672  0.36606646     0.01110
C463        C  0.21300120  0.50857889  0.39279093    -0.19760
C464        C  0.22197522  0.53357591  0.34985139    -0.06320
C465        C  0.26180012  0.55609249  0.33306655     0.14550
C466        C  0.29154360  0.55396243  0.36112525    -0.19810
C467        C  0.28249155  0.52877704  0.40389657    -0.06330
C468        C  0.24265281  0.50624489  0.42061639     0.14530
C469        C  0.23000601  0.48090189  0.46882497    -0.23160
H470        H  0.18249128  0.49114900  0.40539688     0.15820
H471        H  0.32204808  0.57127900  0.34848894     0.15850
C472        C  0.27423051  0.58085607  0.28435499    -0.23110
H473        H  0.21004708  0.44952603  0.45771599     0.06060
H474        H  0.21370345  0.49057112  0.49498579     0.09290
H475        H  0.25480124  0.98273188  0.49177636     0.09290
H476        H  0.24931195  0.57867714  0.26128050     0.09270
H477        H  0.29047283  0.57091002  0.25851572     0.09270
H478        H  0.29418602  0.61236206  0.29484978     0.06050
C479        C  0.23476215  0.55054292  0.11264296    -0.19760
C480        C  0.21547089  0.52226151  0.15147899    -0.06320
C481        C  0.23022279  0.49690927  0.16575021     0.14550
C482        C  0.26345908  0.50015660  0.14001513    -0.19810
C483        C  0.28291340  0.52867242  0.10146459    -0.06330
C484        C  0.26815423  0.55403608  0.08724597     0.14530
C485        C  0.28639508  0.58394211  0.04417324    -0.23160
H486        H  0.22360798  0.57015033  0.10215429     0.15820
H487        H  0.27467549  0.48060454  0.15049585     0.15850
C488        C  0.21236923  0.46762307  0.20953181    -0.23110
H489        H  0.26962485  0.59962235  0.03674422     0.06060
H490        H  0.28655385  0.56890017  0.00753401     0.09290
H491        H  0.31706919  0.60658793  0.05479330     0.09290
H492        H  0.18142913  0.94514189  0.19979729     0.09270
H493        H  0.21298729  0.48328633  0.24599588     0.09270
H494        H  0.22894041  0.45171698  0.21678285     0.06050
C495        C  0.25334211  0.74498927  0.22724893    -0.19760
C496        C  0.21822436  0.74630154  0.23455899    -0.06320
C497        C  0.21692622  0.78035871  0.21809760     0.14550
C498        C  0.25055412  0.81165479  0.19532047    -0.19810
C499        C  0.28563950  0.81033163  0.18788745    -0.06330
C500        C  0.28695171  0.77628618  0.20425363     0.14530
C501        C  0.32334347  0.77226154  0.19819610    -0.23160
H502        H  0.25480464  0.71930084  0.24015422     0.15820
H503        H  0.24903519  0.83731920  0.18241965     0.15850
C504        C  0.18051713  0.78446029  0.22364030    -0.23110
H505        H  0.31923170  0.74434757  0.21535744     0.06060
H506        H  0.34885516  0.79712435  0.21833077     0.09290
H507        H  0.33015270  0.77185283  0.15636763     0.09290
H508        H  0.17326552  0.78468127  0.26531613     0.09270
H509        H  0.15518246  0.75976729  0.20302634     0.09270
H510        H  0.18481954  0.81248471  0.20661062     0.06050
C511        C  0.23517908  0.74030466  0.47457932    -0.19760
C512        C  0.21448567  0.74905499  0.43724690    -0.06320
C513        C  0.22724083  0.78909391  0.42529092     0.14550
C514        C  0.26020409  0.81919298  0.45132768    -0.19810
C515        C  0.28122345  0.81037612  0.48809352    -0.06330
C516        C  0.26817919  0.77033971  0.50045706     0.14530
C517        C  0.28777736  0.75882849  0.04226957    -0.23160
H518        H  0.22543795  0.70962884  0.48351692     0.15820
H519        H  0.27004633  0.84987843  0.44234254     0.15850
C520        C  0.20765390  0.80043137  0.38343326    -0.23110
H521        H  0.27214686  0.72635533  0.04859347     0.06060
H522        H  0.28759526  0.77306971  0.07964778     0.09290
H523        H  0.31864370  0.76799484  0.03103420     0.09290
H524        H  0.17649637  0.79043980  0.39411079     0.09270
H525        H  0.20864015  0.78674969  0.34593431     0.09270
H526        H  0.22277710  0.83295566  0.37773722     0.06050
C527        C  0.46759346  0.74381652  0.30533942    -0.19760
C528        C  0.00390090  0.74494628  0.31273030    -0.06320
C529        C  0.03926727  0.77935571  0.29774218     0.14550
C530        C  0.03706455  0.81124614  0.27624064    -0.19810
C531        C  0.50074311  0.81020523  0.26928398    -0.06330
C532        C  0.46538163  0.77576479  0.28435921     0.14530
C533        C  0.42494409  0.77182604  0.27898235    -0.23160
H534        H  0.44040645  0.71789855  0.31727438     0.15820
H535        H  0.06420467  0.83721011  0.26431134     0.15850
C536        C  0.07958764  0.78324172  0.30401748    -0.23110
H537        H  0.40121776  0.74343139  0.29496008     0.06060
H538        H  0.41778494  0.77254357  0.23737018     0.09290
H539        H  0.42404654  0.79604593  0.30068603     0.09290
H540        H  0.08047835  0.75862685  0.28336322     0.09270
H541        H  0.08648095  0.78310380  0.34587378     0.09270
H542        H  0.10339549  0.81137781  0.28755505     0.06050
C543        C  0.01669392  0.81513496  0.02359233    -0.19760
C544        C  0.49348340  0.80655321  0.06835247    -0.06320
C545        C  0.47240713  0.76716510  0.08670169     0.14550
C546        C  0.47464827  0.73721289  0.05915497    -0.19810
C547        C  0.49816934  0.74589887  0.01465640    -0.06330
C548        C  0.01906317  0.78526238  0.99617658     0.14530
C549        C  0.03105752  0.79276375  0.43886872    -0.23160
H550        H  0.03293108  0.84541073  0.00992524     0.15820
H551        H  0.45861043  0.70696960  0.07296002     0.15850
C552        C  0.44928006  0.75685391  0.13668723    -0.23110
H553        H  0.04181884  0.82398926  0.42773854     0.06060
H554        H  0.50808403  0.77359334  0.41039052     0.09290
H555        H  0.05646111  0.78743811  0.43687699     0.09290
H556        H  0.42476912  0.76346901  0.13351547     0.09270
H557        H  0.96925624  0.77421196  0.16909488     0.09270
H558        H  0.43616421  0.72501072  0.14629584     0.06050
O559        O  0.03150902  0.71633613  0.97157102    -0.57270
C560        C  0.99435039  0.59711036  0.86442061     0.75360
O561        O  0.47752697  0.60985318  0.97999048    -0.58420
C562        C  0.49881653  0.71335343  0.98629971     0.75340
C563        C  0.00249036  0.71214237  0.84395428     0.77730
Cd564      Cd  0.00007802  0.65927062  0.91730222     1.37470
O565        O  0.02296422  0.63163526  0.85586754    -0.57260
O566        O  0.03428683  0.71338742  0.85937525    -0.56070
C567        C  0.50646933  0.60407861  0.97223969     0.77690
O568        O  0.46960985  0.68240726  0.85781016    -0.58440
O569        O  0.96103566  0.59489755  0.87269004    -0.56900
O570        O  0.46658726  0.68206778  0.97402950    -0.56890
O571        O  0.53955695  0.63514694  0.96382749    -0.56060
O572        O  0.46806017  0.84262027  0.72924131    -0.57270
C573        C  0.50589361  0.95721564  0.61504646     0.75360
O574        O  0.02402223  0.94645463  0.72929160    -0.58420
C575        C  0.50014940  0.84363611  0.74239816     0.75340
C576        C  0.49474886  0.83904629  0.59886617     0.77730
Cd577      Cd  0.49940414  0.89516648  0.66926712     1.37460
O578        O  0.47665971  0.92275473  0.60748969    -0.57260
O579        O  0.46323218  0.83737938  0.61634703    -0.56070
C580        C  0.99511068  0.95245225  0.72240589     0.77690
O581        O  0.02803278  0.86955706  0.60943300    -0.58440
O582        O  0.53889555  0.95873217  0.62347118    -0.56900
O583        O  0.03264551  0.87287119  0.72635046    -0.56890
O584        O  0.96159552  0.92153900  0.71496654    -0.56060
O585        O  0.10602651  0.60951068  0.77523152    -0.57270
C586        C  0.18288467  0.71592769  0.90744221     0.75360
O587        O  0.15443560  0.71445728  0.77693624    -0.58420
C588        C  0.07119327  0.60371674  0.78191345     0.75340
C589        C  0.07682669  0.59858039  0.88923161     0.77730
Cd590      Cd  0.13243825  0.66074161  0.83562542     1.37470
O591        O  0.18628799  0.68588594  0.89545459    -0.57260
O592        O  0.10825223  0.59689768  0.88096918    -0.56070
C593        C  0.18549691  0.71338102  0.76386125     0.77690
O594        O  0.08200120  0.63308539  0.89667773    -0.58440
O595        O  0.15248495  0.71704057  0.89092497    -0.56900
O596        O  0.06866080  0.63476456  0.78927577    -0.56890
O597        O  0.18858682  0.68387697  0.77952369    -0.56060
O598        O  0.31493169  0.87310841  0.64466576    -0.57190
C599        C  0.43047509  0.95251918  0.53166796     0.75360
O600        O  0.41917803  0.92424591  0.64777416    -0.58420
C601        C  0.31804353  0.84325748  0.65845924     0.75340
C602        C  0.31440514  0.84325083  0.51618424     0.77730
Cd603      Cd  0.36897307  0.89686823  0.58591752     1.37470
O604        O  0.39580900  0.94695075  0.52421999    -0.57260
O605        O  0.31270362  0.87404644  0.52950191    -0.56070
C606        C  0.42500447  0.95883149  0.63938630     0.77690
O607        O  0.34479113  0.84105165  0.52983527    -0.58440
O608        O  0.43257774  0.92135168  0.53968040    -0.56900
O609        O  0.34860639  0.84197430  0.64316404    -0.56890
O610        O  0.39391681  0.96107318  0.63099551    -0.56060
O611        O  0.34544965  0.56111468  0.55761404    -0.57270
C612        C  0.42490954  0.52236895  0.94823469     0.75360
O613        O  0.39649378  0.00594334  0.56417329    -0.58420
C614        C  0.31593516  0.52881507  0.57323521     0.75340
C615        C  0.31516962  0.52831374  0.93179714     0.77730
Cd616      Cd  0.36887919  0.52832496  0.50214646     1.37470
O617        O  0.41902253  0.55123715  0.94061523    -0.57260
O618        O  0.34596918  0.56075233  0.94469015    -0.56070
C619        C  0.43106043  0.03464531  0.55588443     0.77690
O620        O  0.31297569  0.49578116  0.94552426    -0.58440
O621        O  0.39389103  0.48915403  0.95631072    -0.56900
O622        O  0.31472975  0.49631224  0.56138154    -0.56890
O623        O  0.43307934  0.56777841  0.54715320    -0.56060
O624        O  0.18532941  0.55627647  0.69066315    -0.57270
C625        C  0.07076019  0.52171444  0.80581795     0.75360
O626        O  0.08244205  0.00535319  0.68922528    -0.58420
C627        C  0.18322744  0.52315433  0.68048918     0.75340
C628        C  0.18871927  0.53261528  0.82111973     0.77730
Cd629      Cd  0.13261773  0.52811687  0.75152672     1.37460
O630        O  0.10524654  0.55039331  0.81487710    -0.57260
O631        O  0.18990236  0.56431969  0.80545281    -0.56070
C632        C  0.07660978  0.03415363  0.69792345     0.77690
O633        O  0.15821735  0.49946171  0.81006618    -0.58440
O634        O  0.06884325  0.48864104  0.79662999    -0.56900
O635        O  0.15370103  0.49166433  0.69815121    -0.56890
O636        O  0.10765060  0.56731331  0.70660264    -0.56060
C637        C  0.49722514  0.98810591  0.63808265     0.01110
C638        C  0.46452460  0.98859674  0.61590421     0.01110
C639        C  0.46091934  0.99199948  0.55486813     0.01110
C640        C  0.46112872  0.02497447  0.53262917     0.01110
C641        C  0.03713895  0.02463487  0.72149078     0.01110
C642        C  0.00432548  0.99183511  0.69912540     0.01110
C643        C  0.04090284  0.56433909  0.80501707     0.01110
C644        C  0.04073987  0.53142065  0.78254295     0.01110
C645        C  0.46449310  0.53168074  0.97151315     0.01110
C646        C  0.49729938  0.56441252  0.94923929     0.01110
C647        C  0.00427124  0.56749379  0.88820792     0.01110
C648        C  0.03742084  0.56787833  0.86607355     0.01110
C649        C  0.21292329  0.50854376  0.89270289    -0.19760
C650        C  0.22189430  0.53352787  0.84974886    -0.06320
C651        C  0.26172003  0.55604203  0.83296340     0.14550
C652        C  0.29146346  0.55390977  0.86102200    -0.19810
C653        C  0.28241185  0.52872762  0.90379765    -0.06330
C654        C  0.24257520  0.50621182  0.92053157     0.14530
C655        C  0.22993108  0.48088723  0.96875710    -0.23160
H656        H  0.18241471  0.49111992  0.90531548     0.15820
H657        H  0.32196699  0.57121854  0.84837809     0.15850
C658        C  0.27415199  0.58080298  0.78424971    -0.23110
H659        H  0.20996949  0.44950738  0.95766859     0.06060
H660        H  0.21363260  0.49056849  0.99490662     0.09290
H661        H  0.25472807  0.98272648  0.99171581     0.09290
H662        H  0.24923542  0.57862773  0.76117507     0.09270
H663        H  0.29039105  0.57085255  0.75841142     0.09270
H664        H  0.29411120  0.61230884  0.79474231     0.06050
C665        C  0.23468253  0.55043815  0.61261800    -0.19760
C666        C  0.21538548  0.52214937  0.65144251    -0.06320
C667        C  0.23015979  0.49682280  0.66574823     0.14550
C668        C  0.26342799  0.50010510  0.64005878    -0.19810
C669        C  0.28289272  0.52863505  0.60152595    -0.06330
C670        C  0.26810719  0.55397028  0.58727199     0.14530
C671        C  0.28635646  0.58389026  0.54421626    -0.23160
H672        H  0.22351055  0.57002616  0.60210406     0.15820
H673        H  0.27466310  0.48057341  0.65056560     0.15850
C674        C  0.21229664  0.46753147  0.70952200    -0.23110
H675        H  0.26956299  0.59954226  0.53675403     0.06060
H676        H  0.28656230  0.56886659  0.50758361     0.09290
H677        H  0.31701285  0.60655775  0.55487528     0.09290
H678        H  0.18136695  0.94503722  0.69976209     0.09270
H679        H  0.21288291  0.48318710  0.74597889     0.09270
H680        H  0.22888160  0.45164295  0.71680053     0.06050
C681        C  0.25333736  0.74497688  0.72732571    -0.19760
C682        C  0.21820721  0.74626518  0.73463616    -0.06320
C683        C  0.21688134  0.78030170  0.71814322     0.14550
C684        C  0.25049213  0.81159978  0.69533479    -0.19810
C685        C  0.28559056  0.81030180  0.68790339    -0.06330
C686        C  0.28693092  0.77627741  0.70430188     0.14530
C687        C  0.32333723  0.77228008  0.69824848    -0.23160
H688        H  0.25482232  0.71930524  0.74025357     0.15820
H689        H  0.24895044  0.83724717  0.68241272     0.15850
C690        C  0.18045964  0.78437982  0.72368729    -0.23110
H691        H  0.31924786  0.74437977  0.71542791     0.06060
H692        H  0.34884281  0.79716019  0.71836838     0.09290
H693        H  0.33013933  0.77186262  0.65641893     0.09290
H694        H  0.17321959  0.78461582  0.76536492     0.09270
H695        H  0.15512752  0.75966810  0.70309491     0.09270
H696        H  0.18473952  0.81238946  0.70663556     0.06050
C697        C  0.23516785  0.74025732  0.97466353    -0.19760
C698        C  0.21445999  0.74900092  0.93734561    -0.06320
C699        C  0.22720617  0.78903772  0.92538876     0.14550
C700        C  0.26018072  0.81914132  0.95140226    -0.19810
C701        C  0.28121706  0.81033104  0.98814983    -0.06330
C702        C  0.26817677  0.77029648  0.00052152     0.14530
C703        C  0.28776673  0.75886651  0.54221676    -0.23160
H704        H  0.22543221  0.70958323  0.98360329     0.15820
H705        H  0.27001812  0.84982520  0.94241234     0.15850
C706        C  0.20759579  0.80036792  0.88355502    -0.23110
H707        H  0.27213686  0.72639185  0.54852867     0.06060
H708        H  0.28757041  0.77309937  0.57959618     0.09290
H709        H  0.31863793  0.76803941  0.53099973     0.09290
H710        H  0.17644260  0.79037265  0.89426180     0.09270
H711        H  0.20856580  0.78668495  0.84604915     0.09270
H712        H  0.22271200  0.83289170  0.87785629     0.06050
C713        C  0.46676597  0.74442039  0.80815019    -0.19760
C714        C  0.00301321  0.74531219  0.81489317    -0.06320
C715        C  0.03836948  0.77956909  0.79947772     0.14550
C716        C  0.03621812  0.81151447  0.77812977    -0.19810
C717        C  0.49995155  0.81062645  0.77148236    -0.06330
C718        C  0.46459571  0.77635863  0.78700732     0.14530
C719        C  0.42421772  0.77255743  0.78174991    -0.23160
H720        H  0.43959835  0.71861237  0.82040291     0.15820
H721        H  0.06334708  0.83732631  0.76582811     0.15850
C722        C  0.07864635  0.78324001  0.80508803    -0.23110
H723        H  0.40050422  0.74436134  0.79820807     0.06060
H724        H  0.41687755  0.77290320  0.74012544     0.09290
H725        H  0.42355718  0.79705408  0.80304433     0.09290
H726        H  0.07925572  0.75857242  0.78416920     0.09270
H727        H  0.08581299  0.78304018  0.84682831     0.09270
H728        H  0.10243119  0.81132755  0.78848732     0.06050
C729        C  0.01179901  0.81375942  0.52076915    -0.19760
C730        C  0.49320014  0.80600834  0.56921023    -0.06320
C731        C  0.47610178  0.76751869  0.59041644     0.14550
C732        C  0.47757021  0.73745601  0.56209871    -0.19810
C733        C  0.49646237  0.74532791  0.51383388    -0.06330
C734        C  0.01325970  0.78374066  0.49247284     0.14530
C735        C  0.04250442  0.79575892  0.94642254    -0.23160
H736        H  0.02490355  0.84336013  0.50486266     0.15820
H737        H  0.46475645  0.70792773  0.57815490     0.15850
C738        C  0.45822712  0.75854954  0.64397581    -0.23110
H739        H  0.05540222  0.82756415  0.93672803     0.06060
H740        H  0.52274924  0.77831032  0.91395283     0.09290
H741        H  0.06722559  0.78948407  0.94985232     0.09290
H742        H  0.43286871  0.76395889  0.64563775     0.09270
H743        H  0.98104006  0.77770067  0.67268293     0.09270
H744        H  0.44735938  0.72730310  0.65509395     0.06050
O745        O  0.53051729  0.21653982  0.47115072    -0.57270
C746        C  0.49427149  0.09703698  0.36433544     0.75360
O747        O  0.97763642  0.11006235  0.47985973    -0.58420
C748        C  0.99754810  0.21309243  0.48544394     0.75340
C749        C  0.50330177  0.21200804  0.34248391     0.77730
Cd750      Cd  0.50007910  0.15937448  0.41686820     1.37470
O751        O  0.52285458  0.13153535  0.35562715    -0.57260
O752        O  0.53499899  0.21352975  0.35894045    -0.56070
C753        C  0.00656565  0.10427523  0.47213377     0.77690
O754        O  0.97034421  0.18223977  0.35601062    -0.58440
O755        O  0.46096360  0.09483260  0.37264327    -0.56900
O756        O  0.96557435  0.18170488  0.47272653    -0.56890
O757        O  0.03962528  0.13535135  0.46360833    -0.56060
O758        O  0.96878889  0.34259609  0.22828799    -0.57270
C759        C  0.00616618  0.45751778  0.11491745     0.75360
O760        O  0.52408531  0.44649586  0.22942897    -0.58420
C761        C  0.00090419  0.34345411  0.24086711     0.75340
C762        C  0.99494273  0.33960188  0.09805714     0.77730
Cd763      Cd  0.99979845  0.39550393  0.16887927     1.37460
O764        O  0.97701381  0.42304057  0.10722340    -0.57260
O765        O  0.96345868  0.33801803  0.11554267    -0.56070
C766        C  0.49517225  0.45245765  0.22235702     0.77690
O767        O  0.52823324  0.37009566  0.10869936    -0.58440
O768        O  0.03922469  0.45914839  0.12330326    -0.56900
O769        O  0.53335715  0.37283531  0.22497863    -0.56890
O770        O  0.46171834  0.42151527  0.21473938    -0.56060
O771        O  0.60604394  0.10954261  0.27517232    -0.57270
C772        C  0.68291114  0.21598580  0.40733718     0.75360
O773        O  0.65444967  0.21451232  0.27684502    -0.58420
C774        C  0.57121010  0.10374442  0.28186090     0.75340
C775        C  0.57684068  0.09868529  0.38918156     0.77730
Cd776      Cd  0.63245702  0.16080033  0.33552668     1.37470
O777        O  0.68630283  0.18593513  0.39536329    -0.57260
O778        O  0.60827527  0.09700261  0.38099997    -0.56070
C779        C  0.68550204  0.21342028  0.26376504     0.77690
O780        O  0.58199374  0.13319597  0.39648516    -0.58440
O781        O  0.65252153  0.21711044  0.39080437    -0.56900
O782        O  0.56867640  0.13479535  0.28918003    -0.56890
O783        O  0.68857690  0.18390430  0.27941157    -0.56060
O784        O  0.81501694  0.37314994  0.14468670    -0.57190
C785        C  0.93050714  0.45243105  0.03162645     0.75360
O786        O  0.91929899  0.42422157  0.14759232    -0.58420
C787        C  0.81810272  0.34327961  0.15845573     0.75340
C788        C  0.81441363  0.34321163  0.01621196     0.77730
Cd789      Cd  0.86901413  0.39684697  0.08589264     1.37470
O790        O  0.89584547  0.44683740  0.02405612    -0.57260
O791        O  0.81273938  0.37402953  0.02948858    -0.56070
C792        C  0.92508218  0.45880879  0.13934270     0.77690
O793        O  0.84478791  0.34099657  0.02987765    -0.58440
O794        O  0.93261228  0.42127489  0.03971462    -0.56900
O795        O  0.84864392  0.34196583  0.14313653    -0.56890
O796        O  0.89397888  0.46104108  0.13102818    -0.56060
O797        O  0.84544052  0.06107757  0.05747470    -0.57270
C798        C  0.92498461  0.02249647  0.44833804     0.75360
O799        O  0.89633385  0.50570690  0.06397320    -0.58420
C800        C  0.81590985  0.02879857  0.07311758     0.75340
C801        C  0.81525253  0.02838115  0.43190755     0.77730
Cd802      Cd  0.86879377  0.02821526  0.00200572     1.37470
O803        O  0.91908001  0.05135753  0.44076425    -0.57260
O804        O  0.84602273  0.06083198  0.44484108    -0.56070
C805        C  0.93090581  0.53444458  0.05580093     0.77690
O806        O  0.81308973  0.99585841  0.44561236    -0.58440
O807        O  0.89397847  0.98926918  0.45640145    -0.56900
O808        O  0.81465304  0.99627325  0.06125498    -0.56890
O809        O  0.93291635  0.06758494  0.04717585    -0.56060
O810        O  0.68543945  0.05640102  0.19073520    -0.57270
C811        C  0.57083323  0.02179597  0.30588142     0.75360
O812        O  0.58253269  0.50534517  0.18948521    -0.58420
C813        C  0.68332965  0.02327630  0.18055183     0.75340
C814        C  0.68880649  0.03267748  0.32123038     0.77730
Cd815      Cd  0.63273899  0.02823096  0.25164206     1.37460
O816        O  0.60530952  0.05049833  0.31493444    -0.57260
O817        O  0.68999846  0.06439458  0.30560179    -0.56070
C818        C  0.57668212  0.53415338  0.19801441     0.77690
O819        O  0.65830426  0.99953159  0.31014896    -0.58440
O820        O  0.56895051  0.98873477  0.29672228    -0.56900
O821        O  0.65381107  0.99179135  0.19823483    -0.56890
O822        O  0.60771427  0.06734206  0.20659396    -0.56060
C823        C  0.99732274  0.48823404  0.13807123     0.01110
C824        C  0.96456878  0.48861317  0.11586912     0.01110
C825        C  0.96091630  0.49193849  0.05482470     0.01110
C826        C  0.96103530  0.52485280  0.03256392     0.01110
C827        C  0.53720155  0.52465941  0.22152199     0.01110
C828        C  0.50439142  0.49187113  0.19912281     0.01110
C829        C  0.54092836  0.06437437  0.30500916     0.01110
C830        C  0.54078675  0.03145637  0.28257235     0.01110
C831        C  0.96458110  0.03182165  0.47157931     0.01110
C832        C  0.99737370  0.06455009  0.44925157     0.01110
C833        C  0.50428035  0.06751739  0.38821098     0.01110
C834        C  0.53744589  0.06793607  0.36606574     0.01110
C835        C  0.71300090  0.00857080  0.39278123    -0.19760
C836        C  0.72197527  0.03357011  0.34984413    -0.06320
C837        C  0.76180037  0.05608795  0.33306055     0.14550
C838        C  0.79154372  0.05395743  0.36111885    -0.19810
C839        C  0.78249141  0.02877023  0.40388819    -0.06330
C840        C  0.74265236  0.00623617  0.42060612     0.14530
C841        C  0.73000492  0.98089063  0.46881240    -0.23160
H842        H  0.68249081  0.99113979  0.40538605     0.15820
H843        H  0.82204842  0.07127531  0.34848387     0.15850
C844        C  0.77423122  0.08085347  0.28435070    -0.23110
H845        H  0.71004704  0.94951519  0.45770053     0.06060
H846        H  0.71370101  0.99055773  0.49497401     0.09290
H847        H  0.75480268  0.48274355  0.49178856     0.09290
H848        H  0.74931283  0.07867423  0.26127548     0.09270
H849        H  0.79047508  0.07090942  0.25851114     0.09270
H850        H  0.79418546  0.11235926  0.29484772     0.06050
C851        C  0.73475749  0.05053561  0.11263383    -0.19760
C852        C  0.71546742  0.02225562  0.15147175    -0.06320
C853        C  0.73021955  0.99690367  0.16574351     0.14550
C854        C  0.76345539  0.00015038  0.14000775    -0.19810
C855        C  0.78290900  0.02866534  0.10145600    -0.06330
C856        C  0.76814906  0.05402814  0.08723614     0.14530
C857        C  0.78638871  0.08393272  0.04416159    -0.23160
H858        H  0.72360298  0.07014262  0.10214454     0.15820
H859        H  0.77467225  0.98059885  0.15048929     0.15850
C860        C  0.71236686  0.96761867  0.20952653    -0.23110
H861        H  0.76961778  0.09961211  0.03673156     0.06060
H862        H  0.78654721  0.06888966  0.00752331     0.09290
H863        H  0.81706282  0.10657938  0.05478025     0.09290
H864        H  0.68143183  0.44514630  0.19980102     0.09270
H865        H  0.71298596  0.98328296  0.24599007     0.09270
H866        H  0.72893797  0.95171252  0.21677763     0.06050
C867        C  0.75334225  0.24498984  0.22724968    -0.19760
C868        C  0.71822430  0.24630170  0.23455984    -0.06320
C869        C  0.71692571  0.28035863  0.21809839     0.14550
C870        C  0.75055340  0.31165489  0.19532110    -0.19810
C871        C  0.78563896  0.31033211  0.18788795    -0.06330
C872        C  0.78695160  0.27628689  0.20425417     0.14530
C873        C  0.82334357  0.27226264  0.19819647    -0.23160
H874        H  0.75480511  0.21930159  0.24015499     0.15820
H875        H  0.74903413  0.33731910  0.18242021     0.15850
C876        C  0.68051633  0.28445972  0.22364111    -0.23110
H877        H  0.81923216  0.24434885  0.21535797     0.06060
H878        H  0.84885522  0.29712567  0.21833088     0.09290
H879        H  0.83015264  0.27185380  0.15636796     0.09290
H880        H  0.67326473  0.28468069  0.26531695     0.09270
H881        H  0.65518179  0.25976651  0.20302726     0.09270
H882        H  0.68481840  0.31248398  0.20661134     0.06050
C883        C  0.73517937  0.24030442  0.47457955    -0.19760
C884        C  0.71448593  0.24905450  0.43724689    -0.06320
C885        C  0.72724101  0.28909332  0.42529047     0.14550
C886        C  0.76020421  0.31919258  0.45132708    -0.19810
C887        C  0.78122359  0.31037599  0.48809320    -0.06330
C888        C  0.76817943  0.27033967  0.50045717     0.14530
C889        C  0.78777587  0.25882931  0.04227101    -0.23160
H890        H  0.72543831  0.20962866  0.48351745     0.15820
H891        H  0.77004638  0.34987797  0.44234161     0.15850
C892        C  0.70765405  0.30043046  0.38343247    -0.23110
H893        H  0.77214536  0.22635620  0.04859531     0.06060
H894        H  0.78759357  0.27307077  0.07964892     0.09290
H895        H  0.81864227  0.26799559  0.03103605     0.09290
H896        H  0.67649650  0.29043887  0.39410986     0.09270
H897        H  0.70864039  0.28674858  0.34593375     0.09270
H898        H  0.72277719  0.33295471  0.37773608     0.06050
C899        C  0.96759212  0.24381584  0.30533801    -0.19760
C900        C  0.50389949  0.24494537  0.31272846    -0.06320
C901        C  0.53926587  0.27935462  0.29773989     0.14550
C902        C  0.53706327  0.31124518  0.27623859    -0.19810
C903        C  0.00074193  0.31020456  0.26928241    -0.06330
C904        C  0.96538041  0.27576422  0.28435781     0.14530
C905        C  0.92494297  0.27182570  0.27898105    -0.23160
H906        H  0.94040511  0.21789800  0.31727325     0.15820
H907        H  0.56420341  0.33720900  0.26430903     0.15850
C908        C  0.57958617  0.28324033  0.30401440    -0.23110
H909        H  0.90121658  0.24343115  0.29495893     0.06060
H910        H  0.91778380  0.27254317  0.23736888     0.09290
H911        H  0.92404562  0.29604573  0.30068462     0.09290
H912        H  0.58047644  0.25862524  0.28336011     0.09270
H913        H  0.58647993  0.28310259  0.34587057     0.09270
H914        H  0.60339399  0.31137624  0.28755152     0.06050
C915        C  0.51669363  0.31513540  0.02358964    -0.19760
C916        C  0.99348444  0.30655395  0.06835103    -0.06320
C917        C  0.97240945  0.26716612  0.08670147     0.14550
C918        C  0.97465053  0.23721385  0.05915482    -0.19810
C919        C  0.99817020  0.24589950  0.01465495    -0.06330
C920        C  0.51906265  0.28526270  0.99617380     0.14530
C921        C  0.53105816  0.29276410  0.43886694    -0.23160
H922        H  0.53292976  0.34541095  0.00992156     0.15820
H923        H  0.95861371  0.20697078  0.07296087     0.15850
C924        C  0.94928383  0.25685534  0.13668815    -0.23110
H925        H  0.54181921  0.32398950  0.42773640     0.06060
H926        H  0.00808451  0.27359338  0.41038912     0.09290
H927        H  0.55646184  0.28743861  0.43687499     0.09290
H928        H  0.92477244  0.26346987  0.13351761     0.09270
H929        H  0.46926083  0.27421411  0.16909472     0.09270
H930        H  0.93616876  0.22501235  0.14629751     0.06050
O931        O  0.53150975  0.21633666  0.97156938    -0.57270
C932        C  0.49435229  0.09711070  0.86442012     0.75360
O933        O  0.97752637  0.10985207  0.97998792    -0.58420
C934        C  0.99881733  0.21335395  0.98629844     0.75340
C935        C  0.50249011  0.21214157  0.84395201     0.77730
Cd936      Cd  0.50007834  0.15927066  0.91730115     1.37470
O937        O  0.52296646  0.13163583  0.85586901    -0.57260
O938        O  0.53428664  0.21338683  0.85937315    -0.56070
C939        C  0.00646927  0.10407806  0.97223863     0.77690
O940        O  0.96960967  0.18240646  0.85780815    -0.58440
O941        O  0.46103728  0.09489766  0.87268831    -0.56900
O942        O  0.96658804  0.18206814  0.97402882    -0.56890
O943        O  0.03955684  0.13514672  0.96382716    -0.56060
O944        O  0.96806020  0.34262000  0.72923962    -0.57270
C945        C  0.00589423  0.45721675  0.61504665     0.75360
O946        O  0.52402203  0.44645467  0.72929180    -0.58420
C947        C  0.00014937  0.34363581  0.74239673     0.75340
C948        C  0.99475014  0.33904736  0.59886460     0.77730
Cd949      Cd  0.99940459  0.39516698  0.66926626     1.37460
O950        O  0.97666065  0.42275585  0.60748851    -0.57260
O951        O  0.96323329  0.33738034  0.61634499    -0.56070
C952        C  0.49511038  0.45245212  0.72240600     0.77690
O953        O  0.52803393  0.36955811  0.60943202    -0.58440
O954        O  0.03889617  0.45873345  0.62347219    -0.56900
O955        O  0.53264555  0.37287112  0.72634965    -0.56890
O956        O  0.46159540  0.42153878  0.71496595    -0.56060
O957        O  0.60602705  0.10951063  0.77522979    -0.57270
C958        C  0.68288420  0.21592750  0.90744212     0.75360
O959        O  0.65443586  0.21445644  0.77693609    -0.58420
C960        C  0.57119383  0.10371646  0.78191273     0.75340
C961        C  0.57682781  0.09857889  0.88923123     0.77730
Cd962      Cd  0.63243858  0.16074081  0.83562526     1.37470
O963        O  0.68628816  0.18588609  0.89545467    -0.57260
O964        O  0.60825323  0.09689632  0.88096706    -0.56070
C965        C  0.68549745  0.21338059  0.76386150     0.77690
O966        O  0.58200249  0.13308370  0.89667974    -0.58440
O967        O  0.65248427  0.21703984  0.89092452    -0.56900
O968        O  0.56866123  0.13476412  0.78927578    -0.56890
O969        O  0.68858774  0.18387683  0.77952431    -0.56060
O970        O  0.81493127  0.37310846  0.64466564    -0.57190
C971        C  0.93047486  0.45252007  0.53166827     0.75360
O972        O  0.91917803  0.42424561  0.64777328    -0.58420
C973        C  0.81804331  0.34325762  0.65845906     0.75340
C974        C  0.81440518  0.34325089  0.51618381     0.77730
Cd975      Cd  0.86897271  0.39686850  0.58591724     1.37470
O976        O  0.89580881  0.44695187  0.52422058    -0.57260
O977        O  0.81270341  0.37404640  0.52950130    -0.56070
C978        C  0.92500430  0.45883128  0.63938653     0.77690
O979        O  0.84479129  0.34105197  0.52983495    -0.58440
O980        O  0.93257740  0.42135245  0.53968024    -0.56900
O981        O  0.84860623  0.34197462  0.64316374    -0.56890
O982        O  0.89391658  0.46107301  0.63099620    -0.56060
O983        O  0.84544511  0.06110835  0.55760657    -0.57270
C984        C  0.92491092  0.02236695  0.94823207     0.75360
O985        O  0.89649432  0.50594501  0.56417571    -0.58420
C986        C  0.81593101  0.02880824  0.57322719     0.75340
C987        C  0.81516968  0.02830786  0.93179032     0.77730
Cd988      Cd  0.86887828  0.02832071  0.50214117     1.37470
O989        O  0.91902305  0.05123451  0.94061153    -0.57260
O990        O  0.84596816  0.06074700  0.94468455    -0.56070
C991        C  0.93106125  0.53464667  0.55588714     0.77690
O992        O  0.81297698  0.99577574  0.94551703    -0.58440
O993        O  0.89389288  0.98915154  0.95630757    -0.56900
O994        O  0.81472710  0.99630600  0.56137421    -0.56890
O995        O  0.93307763  0.06777645  0.54714903    -0.56060
O996        O  0.68532848  0.05627190  0.69065825    -0.57270
C997        C  0.57076169  0.02171441  0.80581622     0.75360
O998        O  0.58244219  0.50535401  0.68922773    -0.58420
C999        C  0.68322493  0.02314910  0.68048388     0.75340
C1000       C  0.68871924  0.03261045  0.82111468     0.77730
Cd1001     Cd  0.63261780  0.02811438  0.75152363     1.37460
O1002       O  0.60524847  0.05039326  0.81487337    -0.57260
O1003       O  0.68990329  0.06431547  0.80544848    -0.56070
C1004       C  0.57660924  0.53415413  0.69792497     0.77690
O1005       O  0.65821636  0.99945747  0.81006171    -0.58440
O1006       O  0.56884401  0.98864054  0.79662937    -0.56900
O1007       O  0.65369826  0.99165979  0.69814690    -0.56890
O1008       O  0.60765155  0.06731239  0.70660164    -0.56060
C1009       C  0.99722503  0.48810639  0.63808331     0.01110
C1010       C  0.96452438  0.48859697  0.61590488     0.01110
C1011       C  0.96091921  0.49200011  0.55486889     0.01110
C1012       C  0.96112871  0.52497530  0.53263051     0.01110
C1013       C  0.53713816  0.52463498  0.72149185     0.01110
C1014       C  0.50432502  0.49183513  0.69912609     0.01110
C1015       C  0.54090380  0.06433867  0.80501631     0.01110
C1016       C  0.54074106  0.03142047  0.78254188     0.01110
C1017       C  0.96449435  0.03167996  0.97151197     0.01110
C1018       C  0.99730037  0.06441218  0.94923846     0.01110
C1019       C  0.50427248  0.06749359  0.88820712     0.01110
C1020       C  0.53742182  0.06787759  0.86607276     0.01110
C1021       C  0.71292291  0.00853544  0.89269420    -0.19760
C1022       C  0.72189415  0.03352168  0.84974246    -0.06320
C1023       C  0.76172004  0.05603712  0.83295815     0.14550
C1024       C  0.79146344  0.05390455  0.86101633    -0.19810
C1025       C  0.78241170  0.02872071  0.90379011    -0.06330
C1026       C  0.74257478  0.00620303  0.92052230     0.14530
C1027       C  0.72993017  0.98087609  0.96874573    -0.23160
H1028       H  0.68241420  0.99111048  0.90530577     0.15820
H1029       H  0.82196715  0.07121463  0.84837364     0.15850
C1030       C  0.77415237  0.08079992  0.78424608    -0.23110
H1031       H  0.70996963  0.94949660  0.95765455     0.06060
H1032       H  0.71363037  0.99055529  0.99489599     0.09290
H1033       H  0.75472926  0.48273790  0.99172686     0.09290
H1034       H  0.74923592  0.07862423  0.76117071     0.09270
H1035       H  0.79039298  0.07085150  0.75840754     0.09270
H1036       H  0.79411026  0.11230561  0.79474078     0.06050
C1037       C  0.73467707  0.05042984  0.61260882    -0.19760
C1038       C  0.71538156  0.02214267  0.65143554    -0.06320
C1039       C  0.73015638  0.99681662  0.66574179     0.14550
C1040       C  0.76342401  0.00009831  0.64005133    -0.19810
C1041       C  0.78288769  0.02862723  0.60151699    -0.06330
C1042       C  0.76810114  0.05396139  0.58726181     0.14530
C1043       C  0.78634887  0.08387977  0.54420402    -0.23160
H1044       H  0.72350455  0.07001728  0.60209426     0.15820
H1045       H  0.77465979  0.98056733  0.65055896     0.15850
C1046       C  0.71229454  0.96752677  0.70951735    -0.23110
H1047       H  0.76955452  0.09953073  0.53674081     0.06060
H1048       H  0.78655437  0.06885487  0.50757238     0.09290
H1049       H  0.81700526  0.10654825  0.55486135     0.09290
H1050       H  0.68136942  0.44504210  0.69976474     0.09270
H1051       H  0.71288203  0.98318364  0.74597360     0.09270
H1052       H  0.72887961  0.95163837  0.71679591     0.06050
C1053       C  0.75333800  0.24497707  0.72732614    -0.19760
C1054       C  0.71820758  0.24626489  0.73463635    -0.06320
C1055       C  0.71688121  0.28030107  0.71814298     0.14550
C1056       C  0.75049182  0.31159932  0.69533445    -0.19810
C1057       C  0.78559052  0.31030182  0.68790330    -0.06330
C1058       C  0.78693135  0.27627775  0.70430214     0.14530
C1059       C  0.82333795  0.27228091  0.69824896    -0.23160
H1060       H  0.75482331  0.21930569  0.74025428     0.15820
H1061       H  0.74894977  0.33724645  0.68241205     0.15850
C1062       C  0.68045917  0.28437865  0.72368669    -0.23110
H1063       H  0.81924895  0.24438082  0.71542870     0.06060
H1064       H  0.84884339  0.29716131  0.71836868     0.09290
H1065       H  0.83014006  0.27186331  0.65641944     0.09290
H1066       H  0.67321899  0.28461471  0.76536425     0.09270
H1067       H  0.65512727  0.25966666  0.70309436     0.09270
H1068       H  0.68473870  0.31238808  0.70663468     0.06050
C1069       C  0.73516676  0.24025764  0.97466428    -0.19760
C1070       C  0.71445907  0.24900094  0.93734575    -0.06320
C1071       C  0.72720510  0.28903765  0.92538854     0.14550
C1072       C  0.76017945  0.31914147  0.95140212    -0.19810
C1073       C  0.78121574  0.31033146  0.98815012    -0.06330
C1074       C  0.76817546  0.27029699  0.00052235     0.14530
C1075       C  0.78776699  0.25886678  0.54221720    -0.23160
H1076       H  0.72543118  0.20958361  0.98360437     0.15820
H1077       H  0.77001680  0.34982528  0.94241185     0.15850
C1078       C  0.70759479  0.30036749  0.88355429    -0.23110
H1079       H  0.77213720  0.22639215  0.54852940     0.06060
H1080       H  0.78757056  0.27309980  0.57959643     0.09290
H1081       H  0.81863823  0.26803972  0.53100034     0.09290
H1082       H  0.67644149  0.29037200  0.89426065     0.09270
H1083       H  0.70856516  0.28668447  0.84604864     0.09270
H1084       H  0.72271082  0.33289124  0.87785537     0.06050
C1085       C  0.96676572  0.24441965  0.80814794    -0.19760
C1086       C  0.50301290  0.24531128  0.81489062    -0.06320
C1087       C  0.53836917  0.27956810  0.79947493     0.14550
C1088       C  0.53621790  0.31151364  0.77812735    -0.19810
C1089       C  0.99995142  0.31062587  0.77148048    -0.06330
C1090       C  0.96459555  0.27635805  0.78700539     0.14530
C1091       C  0.92421763  0.27255707  0.78174833    -0.23160
H1092       H  0.93959810  0.21861168  0.82040078     0.15820
H1093       H  0.56334687  0.33732541  0.76582558     0.15850
C1094       C  0.57864599  0.28323878  0.80508462    -0.23110
H1095       H  0.90050410  0.24436098  0.79820645     0.06060
H1096       H  0.91687737  0.27290299  0.74012394     0.09290
H1097       H  0.92355729  0.29705373  0.80304298     0.09290
H1098       H  0.57925499  0.25857100  0.78416578     0.09270
H1099       H  0.58581299  0.28303909  0.84682479     0.09270
H1100       H  0.60243079  0.31132617  0.78848354     0.06050
C1101       C  0.51180020  0.31376026  0.52076751    -0.19760
C1102       C  0.99320167  0.30600942  0.56920884    -0.06320
C1103       C  0.97610368  0.26751990  0.59041543     0.14550
C1104       C  0.97757208  0.23745714  0.56209791    -0.19810
C1105       C  0.99646386  0.24532878  0.51383284    -0.06330
C1106       C  0.51326084  0.28374136  0.49247136     0.14530
C1107       C  0.54250203  0.29575864  0.94641823    -0.23160
H1108       H  0.52490445  0.34336085  0.50486067     0.15820
H1109       H  0.96475855  0.20792898  0.57815441     0.15850
C1110       C  0.95822946  0.25855100  0.64397502    -0.23110
H1111       H  0.55539902  0.32756365  0.93672293     0.06060
H1112       H  0.02274571  0.27830926  0.91394984     0.09290
H1113       H  0.56722361  0.28948427  0.94984631     0.09290
H1114       H  0.93287106  0.26396034  0.64563734     0.09270
H1115       H  0.48104271  0.27770229  0.67268170     0.09270
H1116       H  0.94736186  0.22730462  0.65509341     0.06050
O1117       O  0.53051644  0.71653944  0.47115240    -0.57270
C1118       C  0.49426969  0.59703652  0.36433597     0.75360
O1119       O  0.97763761  0.61006364  0.47986252    -0.58420
C1120       C  0.99754701  0.71309182  0.48544488     0.75340
C1121       C  0.50330308  0.71200891  0.34248568     0.77730
Cd1122     Cd  0.50007930  0.65937453  0.41686924     1.37470
O1123       O  0.52285242  0.63153458  0.35562534    -0.57260
O1124       O  0.53500019  0.71353051  0.35894258    -0.56070
C1125       C  0.00656620  0.60427586  0.47213490     0.77690
O1126       O  0.97034540  0.68224061  0.35601190    -0.58440
O1127       O  0.46096217  0.59483248  0.37264534    -0.56900
O1128       O  0.96557347  0.68170436  0.47272658    -0.56890
O1129       O  0.03962590  0.63535159  0.46360861    -0.56060
O1130       O  0.96878978  0.84259658  0.22829002    -0.57270
C1131       C  0.00616593  0.95751673  0.11491744     0.75360
O1132       O  0.52408620  0.94649625  0.22942869    -0.58420
C1133       C  0.00090518  0.84345458  0.24086852     0.75340
C1134       C  0.99494194  0.83960114  0.09805880     0.77730
Cd1135     Cd  0.99979860  0.89550365  0.16888041     1.37460
O1136       O  0.97701327  0.92303946  0.10722486    -0.57260
O1137       O  0.96345808  0.83801741  0.11554485    -0.56070
C1138       C  0.49517310  0.95245804  0.22235710     0.77690
O1139       O  0.52823259  0.87009492  0.10870049    -0.58440
O1140       O  0.03922448  0.95914726  0.12330237    -0.56900
O1141       O  0.53335800  0.87283558  0.22497932    -0.56890
O1142       O  0.46171903  0.92151565  0.21474043    -0.56060
O1143       O  0.60604337  0.60954228  0.27517396    -0.57270
C1144       C  0.68291084  0.71598645  0.40733699     0.75360
O1145       O  0.65444961  0.71451267  0.27684387    -0.58420
C1146       C  0.57120950  0.60374438  0.28186138     0.75340
C1147       C  0.57683976  0.59868681  0.38918163     0.77730
Cd1148     Cd  0.63245675  0.66080112  0.33552629     1.37470
O1149       O  0.68630218  0.68593553  0.39536345    -0.57260
O1150       O  0.60827449  0.59700404  0.38100170    -0.56070
C1151       C  0.68550187  0.71342033  0.26376417     0.77690
O1152       O  0.58199260  0.63319768  0.39648267    -0.58440
O1153       O  0.65252154  0.71711146  0.39080368    -0.56900
O1154       O  0.56867596  0.63479550  0.28917950    -0.56890
O1155       O  0.68857645  0.68390428  0.27941105    -0.56060
O1156       O  0.81501781  0.87314934  0.14468600    -0.57190
C1157       C  0.93050796  0.95243029  0.03162610     0.75360
O1158       O  0.91929948  0.92422180  0.14759348    -0.58420
C1159       C  0.81810350  0.84327904  0.15845543     0.75340
C1160       C  0.81441489  0.84321106  0.01621195     0.77730
Cd1161     Cd  0.86901529  0.89684638  0.08589269     1.37470
O1162       O  0.89584617  0.94683624  0.02405567    -0.57260
O1163       O  0.81274066  0.87402895  0.02948864    -0.56070
C1164       C  0.92508265  0.95880883  0.13934246     0.77690
O1165       O  0.84478910  0.84099589  0.02987777    -0.58440
O1166       O  0.93261345  0.92127436  0.03971450    -0.56900
O1167       O  0.84864483  0.84196525  0.14313682    -0.56890
O1168       O  0.89397930  0.96104084  0.13102715    -0.56060
O1169       O  0.84544436  0.56108339  0.05748170    -0.57270
C1170       C  0.92498351  0.52249861  0.44834101     0.75360
O1171       O  0.89633376  0.00570533  0.06397107    -0.58420
C1172       C  0.81591336  0.52880480  0.07312503     0.75340
C1173       C  0.81525254  0.52838700  0.43191508     0.77730
Cd1174     Cd  0.86879431  0.52821930  0.00201050     1.37470
O1175       O  0.91907981  0.55136036  0.44076842    -0.57260
O1176       O  0.84602391  0.56083732  0.44484709    -0.56070
C1177       C  0.93090544  0.03444332  0.05579849     0.77690
O1178       O  0.81308855  0.49586385  0.44562047    -0.58440
O1179       O  0.89397689  0.48927182  0.45640502    -0.56900
O1180       O  0.81465514  0.49627896  0.06126155    -0.56890
O1181       O  0.93291760  0.56758678  0.04717972    -0.56060
O1182       O  0.68543998  0.55640474  0.19074057    -0.57270
C1183       C  0.57083132  0.52179546  0.30588329     0.75360
O1184       O  0.58253289  0.00534510  0.18948232    -0.58420
C1185       C  0.68333180  0.52328069  0.18055764     0.75340
C1186       C  0.68880625  0.53268175  0.32123624     0.77730
Cd1187     Cd  0.63273858  0.52823265  0.25164571     1.37460
O1188       O  0.60530720  0.55049775  0.31493844    -0.57260
O1189       O  0.68999715  0.56439816  0.30560676    -0.56070
C1190       C  0.57668282  0.03415348  0.19801269     0.77690
O1191       O  0.65830501  0.49953522  0.31015432    -0.58440
O1192       O  0.56894920  0.48873467  0.29672308    -0.56900
O1193       O  0.65381358  0.49179506  0.19823983    -0.56890
O1194       O  0.60771324  0.56734230  0.20659522    -0.56060
C1195       C  0.99732315  0.98823362  0.13807068     0.01110
C1196       C  0.96456929  0.98861294  0.11586855     0.01110
C1197       C  0.96091687  0.99193797  0.05482405     0.01110
C1198       C  0.96103572  0.02485207  0.03256275     0.01110
C1199       C  0.53720249  0.02465962  0.22152095     0.01110
C1200       C  0.50439217  0.99187127  0.19912222     0.01110
C1201       C  0.54092735  0.56437456  0.30500985     0.01110
C1202       C  0.54078534  0.53145621  0.28257340     0.01110
C1203       C  0.96458015  0.53182251  0.47158065     0.01110
C1204       C  0.99737303  0.56455044  0.44925246     0.01110
C1205       C  0.50427929  0.56751753  0.38821183     0.01110
C1206       C  0.53744505  0.56793672  0.36606646     0.01110
C1207       C  0.71300120  0.50857889  0.39279093    -0.19760
C1208       C  0.72197522  0.53357591  0.34985140    -0.06320
C1209       C  0.76180012  0.55609249  0.33306655     0.14550
C1210       C  0.79154360  0.55396243  0.36112525    -0.19810
C1211       C  0.78249155  0.52877704  0.40389657    -0.06330
C1212       C  0.74265281  0.50624489  0.42061640     0.14530
C1213       C  0.73000601  0.48090189  0.46882497    -0.23160
H1214       H  0.68249128  0.49114900  0.40539688     0.15820
H1215       H  0.82204808  0.57127900  0.34848894     0.15850
C1216       C  0.77423051  0.58085606  0.28435499    -0.23110
H1217       H  0.71004708  0.44952603  0.45771599     0.06060
H1218       H  0.71370345  0.49057112  0.49498579     0.09290
H1219       H  0.75480124  0.98273188  0.49177636     0.09290
H1220       H  0.74931195  0.57867714  0.26128050     0.09270
H1221       H  0.79047283  0.57091002  0.25851572     0.09270
H1222       H  0.79418602  0.61236205  0.29484978     0.06050
C1223       C  0.73476215  0.55054292  0.11264296    -0.19760
C1224       C  0.71547090  0.52226151  0.15147899    -0.06320
C1225       C  0.73022279  0.49690927  0.16575021     0.14550
C1226       C  0.76345908  0.50015660  0.14001513    -0.19810
C1227       C  0.78291340  0.52867242  0.10146459    -0.06330
C1228       C  0.76815423  0.55403608  0.08724597     0.14530
C1229       C  0.78639508  0.58394211  0.04417324    -0.23160
H1230       H  0.72360798  0.57015033  0.10215429     0.15820
H1231       H  0.77467549  0.48060454  0.15049586     0.15850
C1232       C  0.71236923  0.46762307  0.20953181    -0.23110
H1233       H  0.76962485  0.59962235  0.03674423     0.06060
H1234       H  0.78655385  0.56890018  0.00753401     0.09290
H1235       H  0.81706919  0.60658793  0.05479330     0.09290
H1236       H  0.68142913  0.94514189  0.19979729     0.09270
H1237       H  0.71298729  0.48328633  0.24599588     0.09270
H1238       H  0.72894041  0.45171698  0.21678285     0.06050
C1239       C  0.75334211  0.74498927  0.22724893    -0.19760
C1240       C  0.71822436  0.74630154  0.23455899    -0.06320
C1241       C  0.71692622  0.78035871  0.21809761     0.14550
C1242       C  0.75055412  0.81165480  0.19532048    -0.19810
C1243       C  0.78563949  0.81033163  0.18788746    -0.06330
C1244       C  0.78695171  0.77628618  0.20425363     0.14530
C1245       C  0.82334346  0.77226154  0.19819610    -0.23160
H1246       H  0.75480464  0.71930084  0.24015421     0.15820
H1247       H  0.74903519  0.83731920  0.18241966     0.15850
C1248       C  0.68051712  0.78446030  0.22364031    -0.23110
H1249       H  0.81923169  0.74434757  0.21535743     0.06060
H1250       H  0.84885515  0.79712434  0.21833077     0.09290
H1251       H  0.83015269  0.77185283  0.15636762     0.09290
H1252       H  0.67326551  0.78468127  0.26531614     0.09270
H1253       H  0.65518245  0.75976730  0.20302635     0.09270
H1254       H  0.68481954  0.81248471  0.20661063     0.06050
C1255       C  0.73517908  0.74030466  0.47457932    -0.19760
C1256       C  0.71448567  0.74905499  0.43724690    -0.06320
C1257       C  0.72724083  0.78909391  0.42529092     0.14550
C1258       C  0.76020409  0.81919298  0.45132768    -0.19810
C1259       C  0.78122345  0.81037612  0.48809352    -0.06330
C1260       C  0.76817919  0.77033970  0.50045706     0.14530
C1261       C  0.78777731  0.75882849  0.04226962    -0.23160
H1262       H  0.72543795  0.70962884  0.48351692     0.15820
H1263       H  0.77004633  0.84987843  0.44234254     0.15850
C1264       C  0.70765390  0.80043137  0.38343326    -0.23110
H1265       H  0.77214680  0.72635534  0.04859354     0.06060
H1266       H  0.78759520  0.77306973  0.07964783     0.09290
H1267       H  0.81864365  0.76799483  0.03103428     0.09290
H1268       H  0.67649637  0.79043980  0.39411079     0.09270
H1269       H  0.70864015  0.78674969  0.34593431     0.09270
H1270       H  0.72277710  0.83295566  0.37773721     0.06050
C1271       C  0.96759346  0.74381651  0.30533942    -0.19760
C1272       C  0.50390090  0.74494628  0.31273030    -0.06320
C1273       C  0.53926727  0.77935571  0.29774218     0.14550
C1274       C  0.53706455  0.81124614  0.27624064    -0.19810
C1275       C  0.00074311  0.81020523  0.26928398    -0.06330
C1276       C  0.96538163  0.77576479  0.28435921     0.14530
C1277       C  0.92494409  0.77182604  0.27898234    -0.23160
H1278       H  0.94040645  0.71789855  0.31727438     0.15820
H1279       H  0.56420467  0.83721011  0.26431134     0.15850
C1280       C  0.57958764  0.78324172  0.30401748    -0.23110
H1281       H  0.90121776  0.74343139  0.29496008     0.06060
H1282       H  0.91778494  0.77254357  0.23737018     0.09290
H1283       H  0.92404654  0.79604592  0.30068602     0.09290
H1284       H  0.58047835  0.75862685  0.28336322     0.09270
H1285       H  0.58648095  0.78310379  0.34587378     0.09270
H1286       H  0.60339549  0.81137781  0.28755505     0.06050
C1287       C  0.51669392  0.81513496  0.02359233    -0.19760
C1288       C  0.99348340  0.80655321  0.06835247    -0.06320
C1289       C  0.97240712  0.76716510  0.08670168     0.14550
C1290       C  0.97464827  0.73721289  0.05915497    -0.19810
C1291       C  0.99816934  0.74589887  0.01465640    -0.06330
C1292       C  0.51906317  0.78526238  0.99617658     0.14530
C1293       C  0.53105751  0.79276375  0.43886872    -0.23160
H1294       H  0.53293108  0.84541073  0.00992524     0.15820
H1295       H  0.95861043  0.70696959  0.07296002     0.15850
C1296       C  0.94928006  0.75685391  0.13668723    -0.23110
H1297       H  0.54181883  0.82398926  0.42773854     0.06060
H1298       H  0.00808404  0.77359335  0.41039052     0.09290
H1299       H  0.55646110  0.78743811  0.43687698     0.09290
H1300       H  0.92476912  0.76346901  0.13351547     0.09270
H1301       H  0.46925624  0.77421196  0.16909488     0.09270
H1302       H  0.93616420  0.72501072  0.14629584     0.06050
O1303       O  0.53150902  0.71633613  0.97157102    -0.57270
C1304       C  0.49435039  0.59711036  0.86442061     0.75360
O1305       O  0.97752697  0.60985318  0.97999048    -0.58420
C1306       C  0.99881653  0.71335343  0.98629971     0.75340
C1307       C  0.50249036  0.71214237  0.84395428     0.77730
Cd1308     Cd  0.50007802  0.65927062  0.91730222     1.37470
O1309       O  0.52296422  0.63163526  0.85586754    -0.57260
O1310       O  0.53428683  0.71338742  0.85937525    -0.56070
C1311       C  0.00646933  0.60407861  0.97223969     0.77690
O1312       O  0.96960985  0.68240726  0.85781016    -0.58440
O1313       O  0.46103566  0.59489755  0.87269004    -0.56900
O1314       O  0.96658726  0.68206778  0.97402949    -0.56890
O1315       O  0.03955695  0.63514694  0.96382749    -0.56060
O1316       O  0.96806017  0.84262027  0.72924131    -0.57270
C1317       C  0.00589361  0.95721564  0.61504646     0.75360
O1318       O  0.52402223  0.94645463  0.72929160    -0.58420
C1319       C  0.00014940  0.84363611  0.74239816     0.75340
C1320       C  0.99474886  0.83904629  0.59886617     0.77730
Cd1321     Cd  0.99940414  0.89516648  0.66926712     1.37460
O1322       O  0.97665972  0.92275473  0.60748969    -0.57260
O1323       O  0.96323218  0.83737938  0.61634703    -0.56070
C1324       C  0.49511068  0.95245225  0.72240589     0.77690
O1325       O  0.52803278  0.86955707  0.60943300    -0.58440
O1326       O  0.03889555  0.95873217  0.62347118    -0.56900
O1327       O  0.53264551  0.87287119  0.72635046    -0.56890
O1328       O  0.46159552  0.92153900  0.71496654    -0.56060
O1329       O  0.60602651  0.60951068  0.77523152    -0.57270
C1330       C  0.68288467  0.71592770  0.90744221     0.75360
O1331       O  0.65443560  0.71445728  0.77693623    -0.58420
C1332       C  0.57119327  0.60371674  0.78191345     0.75340
C1333       C  0.57682669  0.59858039  0.88923161     0.77730
Cd1334     Cd  0.63243825  0.66074161  0.83562542     1.37470
O1335       O  0.68628799  0.68588595  0.89545460    -0.57260
O1336       O  0.60825224  0.59689768  0.88096918    -0.56070
C1337       C  0.68549691  0.71338102  0.76386125     0.77690
O1338       O  0.58200120  0.63308539  0.89667773    -0.58440
O1339       O  0.65248495  0.71704058  0.89092496    -0.56900
O1340       O  0.56866080  0.63476456  0.78927577    -0.56890
O1341       O  0.68858683  0.68387697  0.77952369    -0.56060
O1342       O  0.81493170  0.87310841  0.64466575    -0.57190
C1343       C  0.93047509  0.95251918  0.53166796     0.75360
O1344       O  0.91917803  0.92424591  0.64777416    -0.58420
C1345       C  0.81804354  0.84325748  0.65845923     0.75340
C1346       C  0.81440515  0.84325083  0.51618424     0.77730
Cd1347     Cd  0.86897307  0.89686823  0.58591752     1.37470
O1348       O  0.89580900  0.94695075  0.52421999    -0.57260
O1349       O  0.81270362  0.87404644  0.52950191    -0.56070
C1350       C  0.92500447  0.95883149  0.63938630     0.77690
O1351       O  0.84479113  0.84105164  0.52983527    -0.58440
O1352       O  0.93257774  0.92135168  0.53968040    -0.56900
O1353       O  0.84860639  0.84197430  0.64316404    -0.56890
O1354       O  0.89391681  0.96107318  0.63099551    -0.56060
O1355       O  0.84544965  0.56111468  0.55761404    -0.57270
C1356       C  0.92490954  0.52236895  0.94823469     0.75360
O1357       O  0.89649378  0.00594334  0.56417329    -0.58420
C1358       C  0.81593516  0.52881507  0.57323521     0.75340
C1359       C  0.81516962  0.52831375  0.93179714     0.77730
Cd1360     Cd  0.86887919  0.52832496  0.50214646     1.37470
O1361       O  0.91902253  0.55123715  0.94061523    -0.57260
O1362       O  0.84596918  0.56075233  0.94469015    -0.56070
C1363       C  0.93106043  0.03464531  0.55588443     0.77690
O1364       O  0.81297569  0.49578116  0.94552426    -0.58440
O1365       O  0.89389103  0.48915403  0.95631072    -0.56900
O1366       O  0.81472975  0.49631224  0.56138154    -0.56890
O1367       O  0.93307934  0.56777841  0.54715320    -0.56060
O1368       O  0.68532941  0.55627647  0.69066315    -0.57270
C1369       C  0.57076019  0.52171444  0.80581795     0.75360
O1370       O  0.58244205  0.00535319  0.68922528    -0.58420
C1371       C  0.68322744  0.52315433  0.68048918     0.75340
C1372       C  0.68871927  0.53261528  0.82111973     0.77730
Cd1373     Cd  0.63261773  0.52811687  0.75152672     1.37460
O1374       O  0.60524654  0.55039331  0.81487710    -0.57260
O1375       O  0.68990236  0.56431969  0.80545281    -0.56070
C1376       C  0.57660978  0.03415363  0.69792345     0.77690
O1377       O  0.65821736  0.49946171  0.81006618    -0.58440
O1378       O  0.56884325  0.48864105  0.79662999    -0.56900
O1379       O  0.65370103  0.49166434  0.69815122    -0.56890
O1380       O  0.60765060  0.56731331  0.70660264    -0.56060
C1381       C  0.99722514  0.98810591  0.63808265     0.01110
C1382       C  0.96452460  0.98859674  0.61590421     0.01110
C1383       C  0.96091935  0.99199948  0.55486813     0.01110
C1384       C  0.96112872  0.02497447  0.53262917     0.01110
C1385       C  0.53713895  0.02463487  0.72149078     0.01110
C1386       C  0.50432548  0.99183511  0.69912540     0.01110
C1387       C  0.54090284  0.56433909  0.80501707     0.01110
C1388       C  0.54073987  0.53142065  0.78254295     0.01110
C1389       C  0.96449310  0.53168074  0.97151315     0.01110
C1390       C  0.99729938  0.56441252  0.94923929     0.01110
C1391       C  0.50427124  0.56749379  0.88820792     0.01110
C1392       C  0.53742084  0.56787833  0.86607355     0.01110
C1393       C  0.71292329  0.50854376  0.89270289    -0.19760
C1394       C  0.72189430  0.53352787  0.84974887    -0.06320
C1395       C  0.76172003  0.55604203  0.83296340     0.14550
C1396       C  0.79146346  0.55390977  0.86102200    -0.19810
C1397       C  0.78241185  0.52872762  0.90379765    -0.06330
C1398       C  0.74257520  0.50621183  0.92053157     0.14530
C1399       C  0.72993108  0.48088723  0.96875711    -0.23160
H1400       H  0.68241471  0.49111993  0.90531548     0.15820
H1401       H  0.82196699  0.57121854  0.84837809     0.15850
C1402       C  0.77415199  0.58080298  0.78424971    -0.23110
H1403       H  0.70996949  0.44950738  0.95766859     0.06060
H1404       H  0.71363260  0.49056849  0.99490662     0.09290
H1405       H  0.75472807  0.98272648  0.99171581     0.09290
H1406       H  0.74923542  0.57862773  0.76117508     0.09270
H1407       H  0.79039105  0.57085255  0.75841142     0.09270
H1408       H  0.79411120  0.61230884  0.79474231     0.06050
C1409       C  0.73468253  0.55043815  0.61261800    -0.19760
C1410       C  0.71538548  0.52214937  0.65144251    -0.06320
C1411       C  0.73015979  0.49682280  0.66574823     0.14550
C1412       C  0.76342799  0.50010510  0.64005879    -0.19810
C1413       C  0.78289272  0.52863505  0.60152596    -0.06330
C1414       C  0.76810719  0.55397028  0.58727200     0.14530
C1415       C  0.78635646  0.58389027  0.54421626    -0.23160
H1416       H  0.72351056  0.57002617  0.60210407     0.15820
H1417       H  0.77466310  0.48057342  0.65056560     0.15850
C1418       C  0.71229664  0.46753147  0.70952200    -0.23110
H1419       H  0.76956299  0.59954226  0.53675403     0.06060
H1420       H  0.78656230  0.56886659  0.50758361     0.09290
H1421       H  0.81701285  0.60655775  0.55487528     0.09290
H1422       H  0.68136695  0.94503722  0.69976209     0.09270
H1423       H  0.71288291  0.48318711  0.74597889     0.09270
H1424       H  0.72888160  0.45164296  0.71680053     0.06050
C1425       C  0.75333736  0.74497688  0.72732571    -0.19760
C1426       C  0.71820721  0.74626518  0.73463616    -0.06320
C1427       C  0.71688134  0.78030170  0.71814322     0.14550
C1428       C  0.75049213  0.81159978  0.69533479    -0.19810
C1429       C  0.78559056  0.81030179  0.68790339    -0.06330
C1430       C  0.78693093  0.77627741  0.70430187     0.14530
C1431       C  0.82333723  0.77228008  0.69824847    -0.23160
H1432       H  0.75482232  0.71930524  0.74025357     0.15820
H1433       H  0.74895045  0.83724717  0.68241272     0.15850
C1434       C  0.68045964  0.78437982  0.72368729    -0.23110
H1435       H  0.81924786  0.74437977  0.71542791     0.06060
H1436       H  0.84884281  0.79716019  0.71836838     0.09290
H1437       H  0.83013933  0.77186262  0.65641893     0.09290
H1438       H  0.67321959  0.78461582  0.76536492     0.09270
H1439       H  0.65512752  0.75966810  0.70309491     0.09270
H1440       H  0.68473952  0.81238946  0.70663556     0.06050
C1441       C  0.73516783  0.74025733  0.97466355    -0.19760
C1442       C  0.71445998  0.74900092  0.93734560    -0.06320
C1443       C  0.72720618  0.78903773  0.92538874     0.14550
C1444       C  0.76018072  0.81914133  0.95140224    -0.19810
C1445       C  0.78121705  0.81033105  0.98814984    -0.06330
C1446       C  0.76817674  0.77029648  0.00052155     0.14530
C1447       C  0.78776673  0.75886651  0.54221676    -0.23160
H1448       H  0.72543217  0.70958323  0.98360333     0.15820
H1449       H  0.77001814  0.84982521  0.94241230     0.15850
C1450       C  0.70759582  0.80036792  0.88355497    -0.23110
H1451       H  0.77213686  0.72639185  0.54852867     0.06060
H1452       H  0.78757041  0.77309937  0.57959618     0.09290
H1453       H  0.81863793  0.76803941  0.53099973     0.09290
H1454       H  0.67644263  0.79037266  0.89426172     0.09270
H1455       H  0.70856584  0.78668494  0.84604911     0.09270
H1456       H  0.72271204  0.83289170  0.87785622     0.06050
C1457       C  0.96676598  0.74442039  0.80815019    -0.19760
C1458       C  0.50301320  0.74531219  0.81489317    -0.06320
C1459       C  0.53836948  0.77956910  0.79947772     0.14550
C1460       C  0.53621812  0.81151448  0.77812977    -0.19810
C1461       C  0.99995156  0.81062645  0.77148236    -0.06330
C1462       C  0.96459571  0.77635863  0.78700732     0.14530
C1463       C  0.92421772  0.77255743  0.78174991    -0.23160
H1464       H  0.93959835  0.71861237  0.82040291     0.15820
H1465       H  0.56334708  0.83732631  0.76582811     0.15850
C1466       C  0.57864635  0.78324001  0.80508803    -0.23110
H1467       H  0.90050422  0.74436134  0.79820807     0.06060
H1468       H  0.91687755  0.77290320  0.74012544     0.09290
H1469       H  0.92355719  0.79705408  0.80304433     0.09290
H1470       H  0.57925571  0.75857242  0.78416920     0.09270
H1471       H  0.58581299  0.78304018  0.84682831     0.09270
H1472       H  0.60243119  0.81132755  0.78848732     0.06050
C1473       C  0.51179901  0.81375942  0.52076915    -0.19760
C1474       C  0.99320014  0.80600834  0.56921023    -0.06320
C1475       C  0.97610178  0.76751869  0.59041644     0.14550
C1476       C  0.97757021  0.73745601  0.56209871    -0.19810
C1477       C  0.99646237  0.74532792  0.51383388    -0.06330
C1478       C  0.51325970  0.78374065  0.49247284     0.14530
C1479       C  0.54250441  0.79575892  0.94642254    -0.23160
H1480       H  0.52490355  0.84336013  0.50486265     0.15820
H1481       H  0.96475645  0.70792773  0.57815490     0.15850
C1482       C  0.95822711  0.75854954  0.64397580    -0.23110
H1483       H  0.55540222  0.82756415  0.93672803     0.06060
H1484       H  0.02274924  0.77831032  0.91395283     0.09290
H1485       H  0.56722559  0.78948407  0.94985231     0.09290
H1486       H  0.93286871  0.76395889  0.64563774     0.09270
H1487       H  0.48104007  0.77770067  0.67268293     0.09270
H1488       H  0.94735938  0.72730309  0.65509395     0.06050
loop_ 
_geom_bond_atom_site_label_1 
_geom_bond_atom_site_label_2 
_geom_bond_distance 
_geom_bond_site_symmetry_2 
_ccdc_geom_bond_type 
O1           Cd6   2.380       .  S
O1          C748   1.277   1_455  A
C2           O11   1.275       .  A
C2            O7   1.269   1_655  A
C2           C89   1.518   1_655  S
O3         Cd750   2.331       .  S
O3            C9   1.270       .  A
C4           O12   1.279       .  A
C4          O745   1.277       .  A
C4          C361   1.469       .  S
C5            O8   1.278       .  A
C5          O754   1.280   1_455  A
C5          C156   1.487       .  S
Cd6          O11   2.471   1_455  S
Cd6           O7   2.321       .  S
Cd6           O8   2.386       .  S
Cd6         O747   2.331   1_455  S
Cd6         O757   2.477       .  S
Cd6         O756   2.404   1_455  S
Cd6         O754   2.370   1_455  S
C9           O13   1.275       .  A
C9           C88   1.521       .  S
O10        Cd750   2.370       .  S
O10         C749   1.280       .  A
O12        Cd750   2.404       .  S
O13        Cd750   2.477       .  S
O14         Cd19   2.365       .  S
O14          C17   1.276       .  A
C15          O24   1.275       .  A
C15          O20   1.271       .  A
C15          C79   1.520       .  S
O16        Cd763   2.318   1_455  S
O16          C22   1.271   1_455  A
C17         O769   1.281       .  A
C17         C159   1.487       .  S
C18          O21   1.279       .  A
C18         O767   1.278       .  A
C18         C172   1.471       .  S
Cd19         O24   2.474       .  S
Cd19         O20   2.326       .  S
Cd19         O21   2.393       .  S
Cd19        O760   2.318       .  S
Cd19        O770   2.471       .  S
Cd19        O769   2.393       .  S
Cd19        O767   2.383       .  S
C22          O26   1.275       .  A
C22          C84   1.518   1_655  S
O23        Cd763   2.383   1_455  S
O23         C762   1.278   1_455  A
O25        Cd763   2.393   1_455  S
O25         C761   1.281       .  A
O26        Cd763   2.471       .  S
O27         Cd32   2.321       .  S
O27          C30   1.272       .  A
C28          O37   1.279       .  A
C28          O33   1.279       .  A
C28         C140   1.477       .  S
O29         Cd32   2.373       .  S
O29          C35   1.276       .  A
C30          O38   1.275       .  A
C30          C85   1.519       .  S
C31          O36   1.271       .  A
C31          O34   1.276       .  A
C31          C90   1.520       .  S
Cd32         O39   2.393       .  S
Cd32         O38   2.471       .  S
Cd32         O37   2.391       .  S
Cd32         O33   2.381       .  S
Cd32         O36   2.321       .  S
Cd32         O34   2.476       .  S
C35          O39   1.281       .  A
C35         C124   1.488       .  S
O40         Cd45   2.375       .  S
O40          C43   1.280       .  A
C41          O50   1.275       .  A
C41          O46   1.271       .  A
C41          C81   1.519       .  S
O42         Cd45   2.323       .  S
O42          C48   1.270       .  A
C43          O51   1.278       .  A
C43         C127   1.488       .  S
C44          O49   1.277       .  A
C44          O47   1.280       .  A
C44         C329   1.476   1_554  S
Cd45         O52   2.472       .  S
Cd45         O51   2.389       .  S
Cd45         O50   2.473       .  S
Cd45         O46   2.327       .  S
Cd45         O49   2.374       .  S
Cd45         O47   2.397       .  S
C48          O52   1.275       .  A
C48          C80   1.519       .  S
O53         Cd58   2.376       .  S
O53          C56   1.278       .  A
C54          O63   1.275   1_545  A
C54          O59   1.271       .  A
C54          C87   1.519       .  S
O55        Cd430   2.324       .  S
O55          C61   1.271       .  A
C56          O64   1.280   1_545  A
C56         C111   1.475       .  S
C57          O62   1.279   1_545  A
C57          O60   1.279       .  A
C57          C95   1.472       .  S
Cd58         O65   2.473       .  S
Cd58         O64   2.392   1_545  S
Cd58        O427   2.324       .  S
Cd58        O249   2.474   1_544  S
Cd58        O245   2.322   1_554  S
Cd58        O248   2.384   1_544  S
Cd58        O246   2.388   1_554  S
O59        Cd244   2.321       .  S
O60        Cd244   2.388       .  S
C61         O437   1.275       .  A
C61          C82   1.519       .  S
O62        Cd244   2.384   1_565  S
O63        Cd244   2.474   1_565  S
O65         C433   1.275       .  A
O66         Cd71   2.376       .  S
O66          C69   1.278       .  A
C67          O76   1.275   1_545  A
C67          O72   1.270       .  A
C67          C86   1.520       .  S
O68        Cd443   2.329       .  S
O68          C74   1.270       .  A
C69          O77   1.279   1_545  A
C69         C108   1.476       .  S
C70          O75   1.278   1_545  A
C70          O73   1.280       .  A
C70          C92   1.472       .  S
Cd71         O78   2.471       .  S
Cd71         O77   2.392   1_545  S
Cd71         O76   2.469   1_545  S
Cd71         O72   2.335       .  S
Cd71         O75   2.371   1_545  S
Cd71         O73   2.396       .  S
Cd71        O440   2.329       .  S
C74         O450   1.275       .  A
C74          C83   1.518       .  S
O78         C446   1.275       .  A
C79          C80   1.404       .  D
C79         C828   1.587       .  S
C80          C81   1.587       .  S
C81          C82   1.405       .  D
C82         C645   1.587   1_554  S
C83          C84   1.403       .  D
C83         C458   1.585       .  S
C84         C823   1.587   1_455  S
C85          C86   1.402       .  D
C85          C90   1.587       .  S
C86         C455   1.585       .  S
C87          C88   1.405       .  D
C87         C640   1.587       .  S
C88         C833   1.587       .  S
C89          C90   1.405       .  D
C89         C832   1.587   1_455  S
C91          C92   1.400       .  A
C91          C96   1.399       .  A
C91          H98   1.085   1_545  S
C92          C93   1.419       .  A
C93          C94   1.402       .  A
C93         C100   1.510       .  S
C94          C95   1.400       .  A
C94          H99   1.085       .  S
C95          C96   1.419       .  A
C96          C97   1.510   1_545  S
C97         H101   1.111       .  S
C97         H102   1.111       .  S
C97         H475   1.103       .  S
C100        H104   1.104       .  S
C100        H105   1.111       .  S
C100        H106   1.110       .  S
H103        C469   1.103       .  S
C107        C108   1.401       .  A
C107        C112   1.401       .  A
C107        H114   1.085       .  S
C108        C109   1.417   1_545  A
C109        C110   1.403   1_565  A
C109        C116   1.508       .  S
C110        C111   1.401       .  A
C110        H115   1.085   1_545  S
C111        C112   1.417       .  A
C112        C113   1.509       .  S
C113        H117   1.111       .  S
C113        H118   1.109       .  S
C113        H119   1.109       .  S
C116        H121   1.110       .  S
C116        H122   1.111       .  S
C116        H492   1.109       .  S
H120        C488   1.109       .  S
C123        C124   1.407       .  A
C123        C128   1.403       .  A
C123        H130   1.084       .  S
C124        C125   1.419       .  A
C125        C126   1.401       .  A
C125        C132   1.511       .  S
C126        C127   1.406       .  A
C126        H131   1.084       .  S
C127        C128   1.418       .  A
C128        C129   1.510       .  S
C129        H133   1.111       .  S
C129        H134   1.110       .  S
C129        H135   1.110       .  S
C132        H136   1.109       .  S
C132        H137   1.110       .  S
C132        H138   1.111       .  S
C139        C140   1.401       .  A
C139        C144   1.401       .  A
C139        H146   1.085       .  S
C140        C141   1.418       .  A
C141        C142   1.403       .  A
C141        C148   1.508       .  S
C142        C143   1.401       .  A
C142        H147   1.085       .  S
C143        C230   1.476       .  S
C143        C144   1.418       .  A
C144        C331   1.509       .  S
C145        C330   1.509       .  S
C145        H149   1.111       .  S
C145        H150   1.110       .  S
C145        H151   1.109       .  S
C148        H152   1.109       .  S
C148        H153   1.110       .  S
C148        H154   1.111       .  S
C155        C160   1.400       .  A
C155        C900   1.406       .  A
C155        H162   1.084       .  S
C156        C157   1.418       .  A
C156        C899   1.406   1_455  A
C157        C158   1.403       .  A
C157        C164   1.509       .  S
C158        C903   1.406       .  A
C158        H163   1.084       .  S
C159        C160   1.420       .  A
C159        C902   1.406       .  A
C160        C161   1.511       .  S
C161        H165   1.111       .  S
C161        H166   1.109       .  S
C161        H167   1.110       .  S
C164        H168   1.110       .  S
C164        H169   1.110       .  S
C164        H170   1.111       .  S
C171        C176   1.401   1_554  A
C171        C916   1.399   1_455  A
C171        H178   1.085       .  S
C172        C173   1.416       .  A
C172        C915   1.399       .  A
C173        C174   1.403       .  A
C173        C180   1.506       .  S
C174        C175   1.399       .  A
C174        H179   1.085       .  S
C175        C190   1.472   1_554  S
C175        C920   1.416   1_554  A
C176        C919   1.416   1_456  A
C176        C363   1.507       .  S
C177        C362   1.505       .  S
C177        H181   1.111       .  S
C177        H183   1.109       .  S
C177        H926   1.107       .  S
C180        H184   1.109       .  S
C180        H186   1.111       .  S
C180        H929   1.109       .  S
H182        C921   1.107       .  S
H185        C924   1.109       .  S
O187       Cd192   2.379       .  S
O187        C934   1.277   1_455  A
C188        O197   1.275       .  A
C188        O193   1.270   1_655  A
C188        C275   1.518   1_655  S
O189       Cd936   2.328       .  S
O189        C195   1.270       .  A
C190        O931   1.277       .  A
C190        O198   1.279       .  A
C191        O940   1.280   1_455  A
C191        O194   1.278       .  A
C191        C342   1.487       .  S
Cd192       O933   2.328   1_455  S
Cd192       O943   2.475       .  S
Cd192       O942   2.400   1_455  S
Cd192       O197   2.471   1_455  S
Cd192       O193   2.322       .  S
Cd192       O940   2.373   1_455  S
Cd192       O194   2.382       .  S
C195        O199   1.275       .  A
C195        C274   1.520       .  S
O196       Cd936   2.373       .  S
O196        C935   1.280       .  A
O198       Cd936   2.400       .  S
O199       Cd936   2.475       .  S
O200       Cd205   2.367       .  S
O200        C203   1.276       .  A
C201        O210   1.275       .  A
C201        O206   1.271       .  A
C201        C265   1.521       .  S
O202       Cd949   2.316   1_455  S
O202        C208   1.271   1_455  A
C203        O955   1.281       .  A
C203        C345   1.487       .  S
C204        O953   1.278       .  A
C204        O207   1.278       .  A
C204        C358   1.469       .  S
Cd205       O946   2.316       .  S
Cd205       O956   2.470       .  S
Cd205       O955   2.390       .  S
Cd205       O210   2.475       .  S
Cd205       O206   2.328       .  S
Cd205       O953   2.388       .  S
Cd205       O207   2.394       .  S
C208        O212   1.275       .  A
C208        C270   1.517   1_655  S
O209       Cd949   2.388   1_455  S
O209        C948   1.278   1_455  A
O211       Cd949   2.390   1_455  S
O211        C947   1.281       .  A
O212       Cd949   2.470       .  S
O213       Cd218   2.321       .  S
O213        C216   1.272       .  A
C214        O223   1.279       .  A
C214        O219   1.279       .  A
C214        C326   1.477       .  S
O215       Cd218   2.374       .  S
O215        C221   1.276       .  A
C216        O224   1.275       .  A
C216        C271   1.519       .  S
C217        O222   1.271       .  A
C217        O220   1.276       .  A
C217        C276   1.520       .  S
Cd218       O225   2.393       .  S
Cd218       O224   2.471       .  S
Cd218       O223   2.391       .  S
Cd218       O219   2.381       .  S
Cd218       O222   2.322       .  S
Cd218       O220   2.476       .  S
C221        O225   1.281       .  A
C221        C310   1.488       .  S
O226       Cd231   2.376       .  S
O226        C229   1.280       .  A
C227        O236   1.275       .  A
C227        O232   1.271       .  A
C227        C267   1.519       .  S
O228       Cd231   2.324       .  S
O228        C234   1.270       .  A
C229        O237   1.278       .  A
C229        C313   1.488       .  S
C230        O235   1.278       .  A
C230        O233   1.280       .  A
Cd231       O238   2.472       .  S
Cd231       O237   2.389       .  S
Cd231       O236   2.474       .  S
Cd231       O232   2.327       .  S
Cd231       O235   2.374       .  S
Cd231       O233   2.397       .  S
C234        O238   1.275       .  A
C234        C266   1.520       .  S
O239       Cd244   2.376       .  S
O239        C242   1.278       .  A
C240        O249   1.275   1_545  A
C240        O245   1.271       .  A
C240        C273   1.519       .  S
O241       Cd616   2.324       .  S
O241        C247   1.270       .  A
C242        O250   1.280   1_545  A
C242        C297   1.476       .  S
C243        O248   1.279   1_545  A
C243        O246   1.279       .  A
C243        C281   1.472       .  S
Cd244       O613   2.324       .  S
Cd244       O251   2.473       .  S
Cd244       O250   2.392   1_545  S
C247        O623   1.275       .  A
C247        C268   1.519       .  S
O251        C619   1.275       .  A
O252       Cd257   2.375       .  S
O252        C255   1.278       .  A
C253        O262   1.275   1_545  A
C253        O258   1.270       .  A
C253        C272   1.520       .  S
O254       Cd629   2.331       .  S
O254        C260   1.270       .  A
C255        O263   1.279   1_545  A
C255        C294   1.476       .  S
C256        O261   1.278   1_545  A
C256        O259   1.280       .  A
C256        C278   1.472       .  S
Cd257       O626   2.331       .  S
Cd257       O264   2.470       .  S
Cd257       O263   2.392   1_545  S
Cd257       O262   2.469   1_545  S
Cd257       O258   2.335       .  S
Cd257       O261   2.372   1_545  S
Cd257       O259   2.397       .  S
C260        O636   1.275       .  A
C260        C269   1.518       .  S
O264        C632   1.275       .  A
C265        C266   1.404       .  D
C265       C1014   1.587       .  S
C266        C267   1.587       .  S
C267        C268   1.405       .  D
C268        C459   1.587       .  S
C269        C270   1.403       .  D
C269        C644   1.585       .  S
C270       C1009   1.587   1_455  S
C271        C272   1.402       .  D
C271        C276   1.587       .  S
C272        C641   1.585       .  S
C273        C274   1.405       .  D
C273        C454   1.587   1_556  S
C274       C1019   1.587       .  S
C275        C276   1.404       .  D
C275       C1018   1.587   1_455  S
C277        C278   1.400       .  A
C277        C282   1.399       .  A
C277        H284   1.085   1_545  S
C278        C279   1.419       .  A
C279        C280   1.402       .  A
C279        C286   1.510       .  S
C280        C281   1.400       .  A
C280        H285   1.085       .  S
C281        C282   1.419       .  A
C282        C283   1.510   1_545  S
C283        H287   1.111       .  S
C283        H288   1.111       .  S
C283        H661   1.103       .  S
C286        H290   1.104       .  S
C286        H291   1.111       .  S
C286        H292   1.110       .  S
H289        C655   1.103       .  S
C293        C294   1.400       .  A
C293        C298   1.401       .  A
C293        H300   1.085       .  S
C294        C295   1.417   1_545  A
C295        C296   1.403   1_565  A
C295        C302   1.508       .  S
C296        C297   1.401       .  A
C296        H301   1.085   1_545  S
C297        C298   1.417       .  A
C298        C299   1.509       .  S
C299        H303   1.111       .  S
C299        H304   1.109       .  S
C299        H305   1.109       .  S
C302        H678   1.109       .  S
C302        H307   1.110       .  S
C302        H308   1.111       .  S
H306        C674   1.109       .  S
C309        C310   1.407       .  A
C309        C314   1.403       .  A
C309        H316   1.084       .  S
C310        C311   1.419       .  A
C311        C312   1.401       .  A
C311        C318   1.511       .  S
C312        C313   1.406       .  A
C312        H317   1.084       .  S
C313        C314   1.418       .  A
C314        C315   1.510       .  S
C315        H319   1.111       .  S
C315        H320   1.110       .  S
C315        H321   1.110       .  S
C318        H322   1.109       .  S
C318        H323   1.110       .  S
C318        H324   1.111       .  S
C325        C326   1.401       .  A
C325        C330   1.401   1_556  A
C325        H332   1.085       .  S
C326        C327   1.418       .  A
C327        C328   1.403       .  A
C327        C334   1.508       .  S
C328        C329   1.401       .  A
C328        H333   1.085       .  S
C329        C330   1.418   1_556  A
C331        H335   1.111       .  S
C331        H336   1.110       .  S
C331        H337   1.109       .  S
C334        H338   1.109       .  S
C334        H339   1.110       .  S
C334        H340   1.111       .  S
C341       C1086   1.406       .  A
C341        C346   1.401       .  A
C341        H348   1.084       .  S
C342       C1085   1.406   1_455  A
C342        C343   1.419       .  A
C343        C344   1.403       .  A
C343        C350   1.510       .  S
C344       C1089   1.406   1_455  A
C344        H349   1.084       .  S
C345       C1088   1.406       .  A
C345        C346   1.420       .  A
C346        C347   1.511       .  S
C347        H351   1.111       .  S
C347        H352   1.109       .  S
C347        H353   1.110       .  S
C350        H354   1.110       .  S
C350        H355   1.110       .  S
C350        H356   1.111       .  S
C357       C1102   1.397   1_455  A
C357        C362   1.400       .  A
C357        H364   1.085       .  S
C358       C1101   1.397       .  A
C358        C359   1.416       .  A
C359        C360   1.402       .  A
C359        C366   1.505       .  S
C360        C361   1.398       .  A
C360        H365   1.085       .  S
C361       C1106   1.415       .  A
C362       C1105   1.415   1_455  A
C363        H367   1.111       .  S
C363       H1112   1.107       .  S
C363        H369   1.109       .  S
C366        H370   1.109       .  S
C366       H1115   1.108       .  S
C366        H372   1.111       .  S
H368       C1107   1.107       .  S
H371       C1110   1.108       .  S
O373       Cd378   2.380       .  S
O373       C1120   1.277   1_455  A
C374        O383   1.275       .  A
C374        O379   1.269   1_655  A
C374        C461   1.518   1_655  S
O375      Cd1122   2.331       .  S
O375        C381   1.270       .  A
C376       O1117   1.277       .  A
C376        O384   1.279       .  A
C376        C733   1.469       .  S
C377       O1126   1.280   1_455  A
C377        O380   1.278       .  A
C377        C528   1.487       .  S
Cd378      O1119   2.331   1_455  S
Cd378      O1129   2.477       .  S
Cd378      O1128   2.404   1_455  S
Cd378       O383   2.471   1_455  S
Cd378       O379   2.321       .  S
Cd378      O1126   2.370   1_455  S
Cd378       O380   2.386       .  S
C381        O385   1.275       .  A
C381        C460   1.521       .  S
O382      Cd1122   2.370       .  S
O382       C1121   1.280       .  A
O384      Cd1122   2.404       .  S
O385      Cd1122   2.477       .  S
O386       Cd391   2.365       .  S
O386        C389   1.276       .  A
C387        O396   1.275       .  A
C387        O392   1.271       .  A
C387        C451   1.520       .  S
O388      Cd1135   2.318   1_455  S
O388        C394   1.271   1_455  A
C389       O1141   1.281       .  A
C389        C531   1.487       .  S
C390       O1139   1.278       .  A
C390        O393   1.279       .  A
C390        C544   1.471       .  S
Cd391      O1132   2.318       .  S
Cd391      O1142   2.471       .  S
Cd391      O1141   2.393       .  S
Cd391       O396   2.474       .  S
Cd391       O392   2.326       .  S
Cd391      O1139   2.383       .  S
Cd391       O393   2.393       .  S
C394        O398   1.275       .  A
C394        C456   1.518   1_655  S
O395      Cd1135   2.383   1_455  S
O395       C1134   1.278   1_455  A
O397      Cd1135   2.393   1_455  S
O397       C1133   1.281       .  A
O398      Cd1135   2.471       .  S
O399       Cd404   2.321       .  S
O399        C402   1.272       .  A
C400        O409   1.279       .  A
C400        O405   1.279       .  A
C400        C512   1.477       .  S
O401       Cd404   2.373       .  S
O401        C407   1.276       .  A
C402        O410   1.275       .  A
C402        C457   1.519       .  S
C403        O408   1.271       .  A
C403        O406   1.276       .  A
C403        C462   1.520       .  S
Cd404       O411   2.393       .  S
Cd404       O410   2.471       .  S
Cd404       O409   2.391       .  S
Cd404       O405   2.381       .  S
Cd404       O408   2.321       .  S
Cd404       O406   2.476       .  S
C407        O411   1.281       .  A
C407        C496   1.488       .  S
O412       Cd417   2.375       .  S
O412        C415   1.280       .  A
C413        O422   1.275       .  A
C413        O418   1.271       .  A
C413        C453   1.519       .  S
O414       Cd417   2.323       .  S
O414        C420   1.270       .  A
C415        O423   1.278       .  A
C415        C499   1.488       .  S
C416        O421   1.277       .  A
C416        O419   1.280       .  A
C416        C701   1.476   1_554  S
Cd417       O424   2.472       .  S
Cd417       O423   2.389       .  S
Cd417       O422   2.473       .  S
Cd417       O418   2.327       .  S
Cd417       O421   2.374       .  S
Cd417       O419   2.397       .  S
C420        O424   1.275       .  A
C420        C452   1.519       .  S
O425       Cd430   2.376       .  S
O425        C428   1.278       .  A
C426        O435   1.275       .  A
C426        O431   1.271       .  A
C426        C459   1.519       .  S
O427        C433   1.271       .  A
C428        O436   1.280       .  A
C428        C483   1.475       .  S
C429        O434   1.279       .  A
C429        O432   1.279       .  A
C429        C467   1.472       .  S
Cd430       O437   2.473       .  S
Cd430       O436   2.392       .  S
Cd430       O621   2.474   1_554  S
Cd430       O617   2.322   1_554  S
Cd430       O620   2.384   1_554  S
Cd430       O618   2.388   1_554  S
O431       Cd616   2.321       .  S
O432       Cd616   2.388       .  S
C433        C454   1.519       .  S
O434       Cd616   2.384       .  S
O435       Cd616   2.474       .  S
O438       Cd443   2.376       .  S
O438        C441   1.278       .  A
C439        O448   1.275       .  A
C439        O444   1.270       .  A
C439        C458   1.520       .  S
O440        C446   1.270       .  A
C441        O449   1.279       .  A
C441        C480   1.476       .  S
C442        O447   1.278       .  A
C442        O445   1.280       .  A
C442        C464   1.472       .  S
Cd443       O450   2.471       .  S
Cd443       O449   2.392       .  S
Cd443       O448   2.469       .  S
Cd443       O444   2.335       .  S
Cd443       O447   2.371       .  S
Cd443       O445   2.396       .  S
C446        C455   1.518       .  S
C451        C452   1.404       .  D
C451       C1200   1.587       .  S
C452        C453   1.587       .  S
C453        C454   1.405   1_565  D
C455        C456   1.403   1_545  D
C456       C1195   1.587   1_455  S
C457        C458   1.402       .  D
C457        C462   1.587       .  S
C459        C460   1.405       .  D
C460       C1205   1.587       .  S
C461        C462   1.405       .  D
C461       C1204   1.587   1_455  S
C463        C464   1.400       .  A
C463        C468   1.399       .  A
C463        H470   1.085       .  S
C464        C465   1.419       .  A
C465        C466   1.402       .  A
C465        C472   1.510       .  S
C466        C467   1.400       .  A
C466        H471   1.085       .  S
C467        C468   1.419       .  A
C468        C469   1.510       .  S
C469        H473   1.111       .  S
C469        H474   1.111       .  S
C472        H476   1.104       .  S
C472        H477   1.111       .  S
C472        H478   1.110       .  S
C479        C480   1.401       .  A
C479        C484   1.401       .  A
C479        H486   1.085       .  S
C480        C481   1.417       .  A
C481        C482   1.403       .  A
C481        C488   1.508       .  S
C482        C483   1.401       .  A
C482        H487   1.085       .  S
C483        C484   1.417       .  A
C484        C485   1.509       .  S
C485        H489   1.111       .  S
C485        H490   1.109       .  S
C485        H491   1.109       .  S
C488        H493   1.110       .  S
C488        H494   1.111       .  S
C495        C496   1.407       .  A
C495        C500   1.403       .  A
C495        H502   1.084       .  S
C496        C497   1.419       .  A
C497        C498   1.401       .  A
C497        C504   1.511       .  S
C498        C499   1.406       .  A
C498        H503   1.084       .  S
C499        C500   1.418       .  A
C500        C501   1.510       .  S
C501        H505   1.111       .  S
C501        H506   1.110       .  S
C501        H507   1.110       .  S
C504        H508   1.109       .  S
C504        H509   1.110       .  S
C504        H510   1.111       .  S
C511        C512   1.401       .  A
C511        C516   1.401       .  A
C511        H518   1.085       .  S
C512        C513   1.418       .  A
C513        C514   1.403       .  A
C513        C520   1.508       .  S
C514        C515   1.401       .  A
C514        H519   1.085       .  S
C515        C602   1.476       .  S
C515        C516   1.418       .  A
C516        C703   1.509       .  S
C517        C702   1.509       .  S
C517        H521   1.111       .  S
C517        H522   1.110       .  S
C517        H523   1.109       .  S
C520        H524   1.109       .  S
C520        H525   1.110       .  S
C520        H526   1.111       .  S
C527       C1272   1.406       .  A
C527        C532   1.400       .  A
C527        H534   1.084       .  S
C528       C1271   1.406   1_455  A
C528        C529   1.418       .  A
C529        C530   1.403       .  A
C529        C536   1.509       .  S
C530       C1275   1.406       .  A
C530        H535   1.084       .  S
C531       C1274   1.406       .  A
C531        C532   1.420       .  A
C532        C533   1.511       .  S
C533        H537   1.111       .  S
C533        H538   1.109       .  S
C533        H539   1.110       .  S
C536        H540   1.110       .  S
C536        H541   1.110       .  S
C536        H542   1.111       .  S
C543       C1288   1.399   1_455  A
C543        C548   1.401   1_554  A
C543        H550   1.085       .  S
C544       C1287   1.399       .  A
C544        C545   1.416       .  A
C545        C546   1.403       .  A
C545        C552   1.506       .  S
C546        C547   1.399       .  A
C546        H551   1.085       .  S
C547        C562   1.472   1_554  S
C547       C1292   1.416   1_554  A
C548       C1291   1.416   1_456  A
C548        C735   1.507       .  S
C549        C734   1.505       .  S
C549        H553   1.111       .  S
C549       H1298   1.107       .  S
C549        H555   1.109       .  S
C552        H556   1.109       .  S
C552       H1301   1.109       .  S
C552        H558   1.111       .  S
H554       C1293   1.107       .  S
H557       C1296   1.109       .  S
O559       Cd564   2.379       .  S
O559       C1306   1.277   1_455  A
C560        O569   1.275       .  A
C560        O565   1.270   1_655  A
C560        C647   1.518   1_655  S
O561      Cd1308   2.328       .  S
O561        C567   1.270       .  A
C562       O1303   1.277       .  A
C562        O570   1.279       .  A
C563       O1312   1.280   1_455  A
C563        O566   1.278       .  A
C563        C714   1.487       .  S
Cd564      O1305   2.328   1_455  S
Cd564      O1315   2.475       .  S
Cd564      O1314   2.400   1_455  S
Cd564       O569   2.471   1_455  S
Cd564       O565   2.322       .  S
Cd564      O1312   2.373   1_455  S
Cd564       O566   2.382       .  S
C567        O571   1.275       .  A
C567        C646   1.520       .  S
O568      Cd1308   2.373       .  S
O568       C1307   1.280       .  A
O570      Cd1308   2.400       .  S
O571      Cd1308   2.475       .  S
O572       Cd577   2.367       .  S
O572        C575   1.276       .  A
C573        O582   1.275       .  A
C573        O578   1.271       .  A
C573        C637   1.521       .  S
O574      Cd1321   2.316   1_455  S
O574        C580   1.271   1_455  A
C575       O1327   1.281       .  A
C575        C717   1.487       .  S
C576       O1325   1.278       .  A
C576        O579   1.278       .  A
C576        C730   1.469       .  S
Cd577      O1318   2.316       .  S
Cd577      O1328   2.470       .  S
Cd577      O1327   2.390       .  S
Cd577       O582   2.475       .  S
Cd577       O578   2.328       .  S
Cd577      O1325   2.388       .  S
Cd577       O579   2.394       .  S
C580        O584   1.275       .  A
C580        C642   1.517   1_655  S
O581      Cd1321   2.388   1_455  S
O581       C1320   1.278   1_455  A
O583      Cd1321   2.390   1_455  S
O583       C1319   1.281       .  A
O584      Cd1321   2.470       .  S
O585       Cd590   2.321       .  S
O585        C588   1.272       .  A
C586        O595   1.279       .  A
C586        O591   1.279       .  A
C586        C698   1.477       .  S
O587       Cd590   2.374       .  S
O587        C593   1.276       .  A
C588        O596   1.275       .  A
C588        C643   1.519       .  S
C589        O594   1.271       .  A
C589        O592   1.276       .  A
C589        C648   1.520       .  S
Cd590       O597   2.393       .  S
Cd590       O596   2.471       .  S
Cd590       O595   2.391       .  S
Cd590       O591   2.381       .  S
Cd590       O594   2.322       .  S
Cd590       O592   2.476       .  S
C593        O597   1.281       .  A
C593        C682   1.488       .  S
O598       Cd603   2.376       .  S
O598        C601   1.280       .  A
C599        O608   1.275       .  A
C599        O604   1.271       .  A
C599        C639   1.519       .  S
O600       Cd603   2.324       .  S
O600        C606   1.270       .  A
C601        O609   1.278       .  A
C601        C685   1.488       .  S
C602        O607   1.278       .  A
C602        O605   1.280       .  A
Cd603       O610   2.472       .  S
Cd603       O609   2.389       .  S
Cd603       O608   2.474       .  S
Cd603       O604   2.327       .  S
Cd603       O607   2.374       .  S
Cd603       O605   2.397       .  S
C606        O610   1.275       .  A
C606        C638   1.520       .  S
O611       Cd616   2.376       .  S
O611        C614   1.278       .  A
C612        O621   1.275       .  A
C612        O617   1.271       .  A
C612        C645   1.519       .  S
O613        C619   1.270       .  A
C614        O622   1.280       .  A
C614        C669   1.475       .  S
C615        O620   1.279       .  A
C615        O618   1.279       .  A
C615        C653   1.472       .  S
Cd616       O623   2.473       .  S
Cd616       O622   2.392       .  S
C619        C640   1.519       .  S
O624       Cd629   2.375       .  S
O624        C627   1.278       .  A
C625        O634   1.275       .  A
C625        O630   1.270       .  A
C625        C644   1.520       .  S
O626        C632   1.270       .  A
C627        O635   1.279       .  A
C627        C666   1.476       .  S
C628        O633   1.278       .  A
C628        O631   1.280       .  A
C628        C650   1.472       .  S
Cd629       O636   2.470       .  S
Cd629       O635   2.392       .  S
Cd629       O634   2.469       .  S
Cd629       O630   2.335       .  S
Cd629       O633   2.372       .  S
Cd629       O631   2.397       .  S
C632        C641   1.518       .  S
C637        C638   1.404       .  D
C637       C1386   1.587       .  S
C638        C639   1.587       .  S
C639        C640   1.405   1_565  D
C641        C642   1.403   1_545  D
C642       C1381   1.587   1_455  S
C643        C644   1.402       .  D
C643        C648   1.587       .  S
C645        C646   1.405       .  D
C646       C1391   1.587       .  S
C647        C648   1.404       .  D
C647       C1390   1.587   1_455  S
C649        C650   1.400       .  A
C649        C654   1.399       .  A
C649        H656   1.085       .  S
C650        C651   1.419       .  A
C651        C652   1.402       .  A
C651        C658   1.510       .  S
C652        C653   1.400       .  A
C652        H657   1.085       .  S
C653        C654   1.419       .  A
C654        C655   1.510       .  S
C655        H659   1.111       .  S
C655        H660   1.111       .  S
C658        H662   1.104       .  S
C658        H663   1.111       .  S
C658        H664   1.110       .  S
C665        C666   1.400       .  A
C665        C670   1.401       .  A
C665        H672   1.085       .  S
C666        C667   1.417       .  A
C667        C668   1.403       .  A
C667        C674   1.508       .  S
C668        C669   1.401       .  A
C668        H673   1.085       .  S
C669        C670   1.417       .  A
C670        C671   1.509       .  S
C671        H675   1.111       .  S
C671        H676   1.109       .  S
C671        H677   1.109       .  S
C674        H679   1.110       .  S
C674        H680   1.111       .  S
C681        C682   1.407       .  A
C681        C686   1.403       .  A
C681        H688   1.084       .  S
C682        C683   1.419       .  A
C683        C684   1.401       .  A
C683        C690   1.511       .  S
C684        C685   1.406       .  A
C684        H689   1.084       .  S
C685        C686   1.418       .  A
C686        C687   1.510       .  S
C687        H691   1.111       .  S
C687        H692   1.110       .  S
C687        H693   1.110       .  S
C690        H694   1.109       .  S
C690        H695   1.110       .  S
C690        H696   1.111       .  S
C697        C698   1.401       .  A
C697        C702   1.401   1_556  A
C697        H704   1.085       .  S
C698        C699   1.418       .  A
C699        C700   1.403       .  A
C699        C706   1.508       .  S
C700        C701   1.401       .  A
C700        H705   1.085       .  S
C701        C702   1.418   1_556  A
C703        H707   1.111       .  S
C703        H708   1.110       .  S
C703        H709   1.109       .  S
C706        H710   1.109       .  S
C706        H711   1.110       .  S
C706        H712   1.111       .  S
C713       C1458   1.406       .  A
C713        C718   1.401       .  A
C713        H720   1.084       .  S
C714       C1457   1.406   1_455  A
C714        C715   1.419       .  A
C715        C716   1.403       .  A
C715        C722   1.510       .  S
C716       C1461   1.406   1_455  A
C716        H721   1.084       .  S
C717       C1460   1.406       .  A
C717        C718   1.420       .  A
C718        C719   1.511       .  S
C719        H723   1.111       .  S
C719        H724   1.109       .  S
C719        H725   1.110       .  S
C722        H726   1.110       .  S
C722        H727   1.110       .  S
C722        H728   1.111       .  S
C729       C1474   1.397   1_455  A
C729        C734   1.400       .  A
C729        H736   1.085       .  S
C730       C1473   1.397       .  A
C730        C731   1.416       .  A
C731        C732   1.402       .  A
C731        C738   1.505       .  S
C732        C733   1.398       .  A
C732        H737   1.085       .  S
C733       C1478   1.415       .  A
C734       C1477   1.415   1_455  A
C735        H739   1.111       .  S
C735       H1484   1.107       .  S
C735        H741   1.109       .  S
C738        H742   1.109       .  S
C738       H1487   1.108       .  S
C738        H744   1.111       .  S
H740       C1479   1.107       .  S
H743       C1482   1.108       .  S
O745       Cd750   2.380       .  S
C746        O755   1.275       .  A
C746        O751   1.269       .  A
C746        C833   1.518       .  S
O747        C753   1.270   1_655  A
C748        O756   1.279       .  A
C748       C1105   1.469       .  S
C749        O752   1.278       .  A
C749        C900   1.487       .  S
Cd750       O755   2.471       .  S
Cd750       O751   2.321       .  S
Cd750       O752   2.386       .  S
C753        O757   1.275       .  A
C753        C832   1.521   1_455  S
O758       Cd763   2.365       .  S
O758        C761   1.276   1_655  A
C759        O768   1.275       .  A
C759        O764   1.271   1_455  A
C759        C823   1.520   1_455  S
O760        C766   1.271       .  A
C761        C903   1.487       .  S
C762        O765   1.279       .  A
C762        C916   1.471       .  S
Cd763       O768   2.474   1_655  S
Cd763       O764   2.326       .  S
Cd763       O765   2.393       .  S
C766        O770   1.275       .  A
C766        C828   1.518       .  S
O771       Cd776   2.321       .  S
O771        C774   1.272       .  A
C772        O781   1.279       .  A
C772        O777   1.279       .  A
C772        C884   1.477       .  S
O773       Cd776   2.373       .  S
O773        C779   1.276       .  A
C774        O782   1.275       .  A
C774        C829   1.519       .  S
C775        O780   1.271       .  A
C775        O778   1.276       .  A
C775        C834   1.520       .  S
Cd776       O783   2.393       .  S
Cd776       O782   2.471       .  S
Cd776       O781   2.391       .  S
Cd776       O777   2.381       .  S
Cd776       O780   2.321       .  S
Cd776       O778   2.476       .  S
C779        O783   1.281       .  A
C779        C868   1.488       .  S
O784       Cd789   2.375       .  S
O784        C787   1.280       .  A
C785        O794   1.275       .  A
C785        O790   1.271       .  A
C785        C825   1.519       .  S
O786       Cd789   2.323       .  S
O786        C792   1.270       .  A
C787        O795   1.278       .  A
C787        C871   1.488       .  S
C788        O793   1.277       .  A
C788        O791   1.280       .  A
C788       C1073   1.476   1_554  S
Cd789       O796   2.472       .  S
Cd789       O795   2.389       .  S
Cd789       O794   2.473       .  S
Cd789       O790   2.327       .  S
Cd789       O793   2.374       .  S
Cd789       O791   2.397       .  S
C792        O796   1.275       .  A
C792        C824   1.519       .  S
O797       Cd802   2.376       .  S
O797        C800   1.278       .  A
C798        O807   1.275   1_545  A
C798        O803   1.271       .  A
C798        C831   1.519       .  S
O799      Cd1174   2.324       .  S
O799        C805   1.271       .  A
C800        O808   1.280   1_545  A
C800        C855   1.475       .  S
C801        O806   1.279   1_545  A
C801        O804   1.279       .  A
C801        C839   1.472       .  S
Cd802      O1171   2.324       .  S
Cd802       O809   2.473       .  S
Cd802       O808   2.392   1_545  S
Cd802       O993   2.474   1_544  S
Cd802       O989   2.322   1_554  S
Cd802       O992   2.384   1_544  S
Cd802       O990   2.388   1_554  S
O803       Cd988   2.321       .  S
O804       Cd988   2.388       .  S
C805       O1181   1.275       .  A
C805        C826   1.519       .  S
O806       Cd988   2.384   1_565  S
O807       Cd988   2.474   1_565  S
O809       C1177   1.275       .  A
O810       Cd815   2.376       .  S
O810        C813   1.278       .  A
C811        O820   1.275   1_545  A
C811        O816   1.270       .  A
C811        C830   1.520       .  S
O812      Cd1187   2.329       .  S
O812        C818   1.270       .  A
C813        O821   1.279   1_545  A
C813        C852   1.476       .  S
C814        O819   1.278   1_545  A
C814        O817   1.280       .  A
C814        C836   1.472       .  S
Cd815      O1184   2.329       .  S
Cd815       O822   2.471       .  S
Cd815       O821   2.392   1_545  S
Cd815       O820   2.469   1_545  S
Cd815       O816   2.335       .  S
Cd815       O819   2.371   1_545  S
Cd815       O817   2.396       .  S
C818       O1194   1.275       .  A
C818        C827   1.518       .  S
O822       C1190   1.275       .  A
C823        C824   1.404       .  D
C824        C825   1.587       .  S
C825        C826   1.405       .  D
C826       C1389   1.587   1_554  S
C827        C828   1.403       .  D
C827       C1202   1.585       .  S
C829        C830   1.402       .  D
C829        C834   1.587       .  S
C830       C1199   1.585       .  S
C831        C832   1.405       .  D
C831       C1384   1.587       .  S
C833        C834   1.405       .  D
C835        C836   1.400       .  A
C835        C840   1.399       .  A
C835        H842   1.085   1_545  S
C836        C837   1.419       .  A
C837        C838   1.402       .  A
C837        C844   1.510       .  S
C838        C839   1.400       .  A
C838        H843   1.085       .  S
C839        C840   1.419       .  A
C840        C841   1.510   1_545  S
C841        H845   1.111       .  S
C841        H846   1.111       .  S
C841       H1219   1.103       .  S
C844        H848   1.104       .  S
C844        H849   1.111       .  S
C844        H850   1.110       .  S
H847       C1213   1.103       .  S
C851        C852   1.401       .  A
C851        C856   1.401       .  A
C851        H858   1.085       .  S
C852        C853   1.417   1_545  A
C853        C854   1.403   1_565  A
C853        C860   1.508       .  S
C854        C855   1.401       .  A
C854        H859   1.085   1_545  S
C855        C856   1.417       .  A
C856        C857   1.509       .  S
C857        H861   1.111       .  S
C857        H862   1.109       .  S
C857        H863   1.109       .  S
C860       H1236   1.109       .  S
C860        H865   1.110       .  S
C860        H866   1.111       .  S
H864       C1232   1.109       .  S
C867        C868   1.407       .  A
C867        C872   1.403       .  A
C867        H874   1.084       .  S
C868        C869   1.419       .  A
C869        C870   1.401       .  A
C869        C876   1.511       .  S
C870        C871   1.406       .  A
C870        H875   1.084       .  S
C871        C872   1.418       .  A
C872        C873   1.510       .  S
C873        H877   1.111       .  S
C873        H878   1.110       .  S
C873        H879   1.110       .  S
C876        H880   1.109       .  S
C876        H881   1.110       .  S
C876        H882   1.111       .  S
C883        C884   1.401       .  A
C883        C888   1.401       .  A
C883        H890   1.085       .  S
C884        C885   1.418       .  A
C885        C886   1.403       .  A
C885        C892   1.508       .  S
C886        C887   1.401       .  A
C886        H891   1.085       .  S
C887        C974   1.476       .  S
C887        C888   1.418       .  A
C888       C1075   1.509       .  S
C889       C1074   1.509       .  S
C889        H893   1.111       .  S
C889        H894   1.110       .  S
C889        H895   1.109       .  S
C892        H896   1.109       .  S
C892        H897   1.110       .  S
C892        H898   1.111       .  S
C899        C904   1.400       .  A
C899        H906   1.084       .  S
C900        C901   1.418       .  A
C901        C902   1.403       .  A
C901        C908   1.509       .  S
C902        H907   1.084       .  S
C903        C904   1.420   1_455  A
C904        C905   1.511       .  S
C905        H909   1.111       .  S
C905        H910   1.109       .  S
C905        H911   1.110       .  S
C908        H912   1.110       .  S
C908        H913   1.110       .  S
C908        H914   1.111       .  S
C915        C920   1.401   1_554  A
C915        H922   1.085       .  S
C916        C917   1.416       .  A
C917        C918   1.403       .  A
C917        C924   1.506       .  S
C918        C919   1.399       .  A
C918        H923   1.085       .  S
C919        C934   1.472   1_554  S
C920       C1107   1.507       .  S
C921       C1106   1.505       .  S
C921        H925   1.111       .  S
C921        H927   1.109       .  S
C924        H928   1.109       .  S
C924        H930   1.111       .  S
O931       Cd936   2.379       .  S
C932        O941   1.275       .  A
C932        O937   1.270       .  A
C932       C1019   1.518       .  S
O933        C939   1.270   1_655  A
C934        O942   1.279       .  A
C935        O938   1.278       .  A
C935       C1086   1.487       .  S
Cd936       O941   2.471       .  S
Cd936       O937   2.322       .  S
Cd936       O938   2.382       .  S
C939        O943   1.275       .  A
C939       C1018   1.520   1_455  S
O944       Cd949   2.367       .  S
O944        C947   1.276   1_655  A
C945        O954   1.275       .  A
C945        O950   1.271   1_455  A
C945       C1009   1.521   1_455  S
O946        C952   1.271       .  A
C947       C1089   1.487   1_455  S
C948        O951   1.278       .  A
C948       C1102   1.469       .  S
Cd949       O954   2.475   1_655  S
Cd949       O950   2.328       .  S
Cd949       O951   2.394       .  S
C952        O956   1.275       .  A
C952       C1014   1.517       .  S
O957       Cd962   2.321       .  S
O957        C960   1.272       .  A
C958        O967   1.279       .  A
C958        O963   1.279       .  A
C958       C1070   1.477       .  S
O959       Cd962   2.374       .  S
O959        C965   1.276       .  A
C960        O968   1.275       .  A
C960       C1015   1.519       .  S
C961        O966   1.271       .  A
C961        O964   1.276       .  A
C961       C1020   1.520       .  S
Cd962       O969   2.393       .  S
Cd962       O968   2.471       .  S
Cd962       O967   2.391       .  S
Cd962       O963   2.381       .  S
Cd962       O966   2.322       .  S
Cd962       O964   2.476       .  S
C965        O969   1.281       .  A
C965       C1054   1.488       .  S
O970       Cd975   2.376       .  S
O970        C973   1.280       .  A
C971        O980   1.275       .  A
C971        O976   1.271       .  A
C971       C1011   1.519       .  S
O972       Cd975   2.324       .  S
O972        C978   1.270       .  A
C973        O981   1.278       .  A
C973       C1057   1.488       .  S
C974        O979   1.278       .  A
C974        O977   1.280       .  A
Cd975       O982   2.472       .  S
Cd975       O981   2.389       .  S
Cd975       O980   2.474       .  S
Cd975       O976   2.327       .  S
Cd975       O979   2.374       .  S
Cd975       O977   2.397       .  S
C978        O982   1.275       .  A
C978       C1010   1.520       .  S
O983       Cd988   2.376       .  S
O983        C986   1.278       .  A
C984        O993   1.275   1_545  A
C984        O989   1.271       .  A
C984       C1017   1.519       .  S
O985      Cd1360   2.324       .  S
O985        C991   1.270       .  A
C986        O994   1.280   1_545  A
C986       C1041   1.476       .  S
C987        O992   1.279   1_545  A
C987        O990   1.279       .  A
C987       C1025   1.472       .  S
Cd988      O1357   2.324       .  S
Cd988       O995   2.473       .  S
Cd988       O994   2.392   1_545  S
C991       O1367   1.275       .  A
C991       C1012   1.519       .  S
O995       C1363   1.275       .  A
O996      Cd1001   2.375       .  S
O996        C999   1.278       .  A
C997       O1006   1.275   1_545  A
C997       O1002   1.270       .  A
C997       C1016   1.520       .  S
O998      Cd1373   2.331       .  S
O998       C1004   1.270       .  A
C999       O1007   1.279   1_545  A
C999       C1038   1.476       .  S
C1000      O1005   1.278   1_545  A
C1000      O1003   1.280       .  A
C1000      C1022   1.472       .  S
Cd1001     O1370   2.331       .  S
Cd1001     O1008   2.470       .  S
Cd1001     O1007   2.392   1_545  S
Cd1001     O1006   2.469   1_545  S
Cd1001     O1002   2.335       .  S
Cd1001     O1005   2.372   1_545  S
Cd1001     O1003   2.397       .  S
C1004      O1380   1.275       .  A
C1004      C1013   1.518       .  S
O1008      C1376   1.275       .  A
C1009      C1010   1.404       .  D
C1010      C1011   1.587       .  S
C1011      C1012   1.405       .  D
C1012      C1203   1.587       .  S
C1013      C1014   1.403       .  D
C1013      C1388   1.585       .  S
C1015      C1016   1.402       .  D
C1015      C1020   1.587       .  S
C1016      C1385   1.585       .  S
C1017      C1018   1.405       .  D
C1017      C1198   1.587   1_556  S
C1019      C1020   1.404       .  D
C1021      C1022   1.400       .  A
C1021      C1026   1.399       .  A
C1021      H1028   1.085   1_545  S
C1022      C1023   1.419       .  A
C1023      C1024   1.402       .  A
C1023      C1030   1.510       .  S
C1024      C1025   1.400       .  A
C1024      H1029   1.085       .  S
C1025      C1026   1.419       .  A
C1026      C1027   1.510   1_545  S
C1027      H1031   1.111       .  S
C1027      H1032   1.111       .  S
C1027      H1405   1.103       .  S
C1030      H1034   1.104       .  S
C1030      H1035   1.111       .  S
C1030      H1036   1.110       .  S
H1033      C1399   1.103       .  S
C1037      C1038   1.400       .  A
C1037      C1042   1.401       .  A
C1037      H1044   1.085       .  S
C1038      C1039   1.417   1_545  A
C1039      C1040   1.403   1_565  A
C1039      C1046   1.508       .  S
C1040      C1041   1.401       .  A
C1040      H1045   1.085   1_545  S
C1041      C1042   1.417       .  A
C1042      C1043   1.509       .  S
C1043      H1047   1.111       .  S
C1043      H1048   1.109       .  S
C1043      H1049   1.109       .  S
C1046      H1422   1.109       .  S
C1046      H1051   1.110       .  S
C1046      H1052   1.111       .  S
H1050      C1418   1.109       .  S
C1053      C1054   1.407       .  A
C1053      C1058   1.403       .  A
C1053      H1060   1.084       .  S
C1054      C1055   1.419       .  A
C1055      C1056   1.401       .  A
C1055      C1062   1.511       .  S
C1056      C1057   1.406       .  A
C1056      H1061   1.084       .  S
C1057      C1058   1.418       .  A
C1058      C1059   1.510       .  S
C1059      H1063   1.111       .  S
C1059      H1064   1.110       .  S
C1059      H1065   1.110       .  S
C1062      H1066   1.109       .  S
C1062      H1067   1.110       .  S
C1062      H1068   1.111       .  S
C1069      C1070   1.401       .  A
C1069      C1074   1.401   1_556  A
C1069      H1076   1.085       .  S
C1070      C1071   1.418       .  A
C1071      C1072   1.403       .  A
C1071      C1078   1.508       .  S
C1072      C1073   1.401       .  A
C1072      H1077   1.085       .  S
C1073      C1074   1.418   1_556  A
C1075      H1079   1.111       .  S
C1075      H1080   1.110       .  S
C1075      H1081   1.109       .  S
C1078      H1082   1.109       .  S
C1078      H1083   1.110       .  S
C1078      H1084   1.111       .  S
C1085      C1090   1.401       .  A
C1085      H1092   1.084       .  S
C1086      C1087   1.419       .  A
C1087      C1088   1.403       .  A
C1087      C1094   1.510       .  S
C1088      H1093   1.084       .  S
C1089      C1090   1.420       .  A
C1090      C1091   1.511       .  S
C1091      H1095   1.111       .  S
C1091      H1096   1.109       .  S
C1091      H1097   1.110       .  S
C1094      H1098   1.110       .  S
C1094      H1099   1.110       .  S
C1094      H1100   1.111       .  S
C1101      C1106   1.400       .  A
C1101      H1108   1.085       .  S
C1102      C1103   1.416       .  A
C1103      C1104   1.402       .  A
C1103      C1110   1.505       .  S
C1104      C1105   1.398       .  A
C1104      H1109   1.085       .  S
C1107      H1111   1.111       .  S
C1107      H1113   1.109       .  S
C1110      H1114   1.109       .  S
C1110      H1116   1.111       .  S
O1117     Cd1122   2.380       .  S
C1118      O1127   1.275       .  A
C1118      O1123   1.269       .  A
C1118      C1205   1.518       .  S
O1119      C1125   1.270   1_655  A
C1120      O1128   1.279       .  A
C1120      C1477   1.469       .  S
C1121      O1124   1.278       .  A
C1121      C1272   1.487       .  S
Cd1122     O1127   2.471       .  S
Cd1122     O1123   2.321       .  S
Cd1122     O1124   2.386       .  S
C1125      O1129   1.275       .  A
C1125      C1204   1.521   1_455  S
O1130     Cd1135   2.365       .  S
O1130      C1133   1.276   1_655  A
C1131      O1140   1.275       .  A
C1131      O1136   1.271   1_455  A
C1131      C1195   1.520   1_455  S
O1132      C1138   1.271       .  A
C1133      C1275   1.487       .  S
C1134      O1137   1.279       .  A
C1134      C1288   1.471       .  S
Cd1135     O1140   2.474   1_655  S
Cd1135     O1136   2.326       .  S
Cd1135     O1137   2.393       .  S
C1138      O1142   1.275       .  A
C1138      C1200   1.518       .  S
O1143     Cd1148   2.321       .  S
O1143      C1146   1.272       .  A
C1144      O1153   1.279       .  A
C1144      O1149   1.279       .  A
C1144      C1256   1.477       .  S
O1145     Cd1148   2.373       .  S
O1145      C1151   1.276       .  A
C1146      O1154   1.275       .  A
C1146      C1201   1.519       .  S
C1147      O1152   1.271       .  A
C1147      O1150   1.276       .  A
C1147      C1206   1.520       .  S
Cd1148     O1155   2.393       .  S
Cd1148     O1154   2.471       .  S
Cd1148     O1153   2.391       .  S
Cd1148     O1149   2.381       .  S
Cd1148     O1152   2.321       .  S
Cd1148     O1150   2.476       .  S
C1151      O1155   1.281       .  A
C1151      C1240   1.488       .  S
O1156     Cd1161   2.375       .  S
O1156      C1159   1.280       .  A
C1157      O1166   1.275       .  A
C1157      O1162   1.271       .  A
C1157      C1197   1.519       .  S
O1158     Cd1161   2.323       .  S
O1158      C1164   1.270       .  A
C1159      O1167   1.278       .  A
C1159      C1243   1.488       .  S
C1160      O1165   1.277       .  A
C1160      O1163   1.280       .  A
C1160      C1445   1.476   1_554  S
Cd1161     O1168   2.472       .  S
Cd1161     O1167   2.389       .  S
Cd1161     O1166   2.473       .  S
Cd1161     O1162   2.327       .  S
Cd1161     O1165   2.374       .  S
Cd1161     O1163   2.397       .  S
C1164      O1168   1.275       .  A
C1164      C1196   1.519       .  S
O1169     Cd1174   2.376       .  S
O1169      C1172   1.278       .  A
C1170      O1179   1.275       .  A
C1170      O1175   1.271       .  A
C1170      C1203   1.519       .  S
O1171      C1177   1.271       .  A
C1172      O1180   1.280       .  A
C1172      C1227   1.475       .  S
C1173      O1178   1.279       .  A
C1173      O1176   1.279       .  A
C1173      C1211   1.472       .  S
Cd1174     O1181   2.473       .  S
Cd1174     O1180   2.392       .  S
Cd1174     O1365   2.474   1_554  S
Cd1174     O1361   2.322   1_554  S
Cd1174     O1364   2.384   1_554  S
Cd1174     O1362   2.388   1_554  S
O1175     Cd1360   2.321       .  S
O1176     Cd1360   2.388       .  S
C1177      C1198   1.519       .  S
O1178     Cd1360   2.384       .  S
O1179     Cd1360   2.474       .  S
O1182     Cd1187   2.376       .  S
O1182      C1185   1.278       .  A
C1183      O1192   1.275       .  A
C1183      O1188   1.270       .  A
C1183      C1202   1.520       .  S
O1184      C1190   1.270       .  A
C1185      O1193   1.279       .  A
C1185      C1224   1.476       .  S
C1186      O1191   1.278       .  A
C1186      O1189   1.280       .  A
C1186      C1208   1.472       .  S
Cd1187     O1194   2.471       .  S
Cd1187     O1193   2.392       .  S
Cd1187     O1192   2.469       .  S
Cd1187     O1188   2.335       .  S
Cd1187     O1191   2.371       .  S
Cd1187     O1189   2.396       .  S
C1190      C1199   1.518       .  S
C1195      C1196   1.404       .  D
C1196      C1197   1.587       .  S
C1197      C1198   1.405   1_565  D
C1199      C1200   1.403   1_545  D
C1201      C1202   1.402       .  D
C1201      C1206   1.587       .  S
C1203      C1204   1.405       .  D
C1205      C1206   1.405       .  D
C1207      C1208   1.400       .  A
C1207      C1212   1.399       .  A
C1207      H1214   1.085       .  S
C1208      C1209   1.419       .  A
C1209      C1210   1.402       .  A
C1209      C1216   1.510       .  S
C1210      C1211   1.400       .  A
C1210      H1215   1.085       .  S
C1211      C1212   1.419       .  A
C1212      C1213   1.510       .  S
C1213      H1217   1.111       .  S
C1213      H1218   1.111       .  S
C1216      H1220   1.104       .  S
C1216      H1221   1.111       .  S
C1216      H1222   1.110       .  S
C1223      C1224   1.401       .  A
C1223      C1228   1.401       .  A
C1223      H1230   1.085       .  S
C1224      C1225   1.417       .  A
C1225      C1226   1.403       .  A
C1225      C1232   1.508       .  S
C1226      C1227   1.401       .  A
C1226      H1231   1.085       .  S
C1227      C1228   1.417       .  A
C1228      C1229   1.509       .  S
C1229      H1233   1.111       .  S
C1229      H1234   1.109       .  S
C1229      H1235   1.109       .  S
C1232      H1237   1.110       .  S
C1232      H1238   1.111       .  S
C1239      C1240   1.407       .  A
C1239      C1244   1.403       .  A
C1239      H1246   1.084       .  S
C1240      C1241   1.419       .  A
C1241      C1242   1.401       .  A
C1241      C1248   1.511       .  S
C1242      C1243   1.406       .  A
C1242      H1247   1.084       .  S
C1243      C1244   1.418       .  A
C1244      C1245   1.510       .  S
C1245      H1249   1.111       .  S
C1245      H1250   1.110       .  S
C1245      H1251   1.110       .  S
C1248      H1252   1.109       .  S
C1248      H1253   1.110       .  S
C1248      H1254   1.111       .  S
C1255      C1256   1.401       .  A
C1255      C1260   1.401       .  A
C1255      H1262   1.085       .  S
C1256      C1257   1.418       .  A
C1257      C1258   1.403       .  A
C1257      C1264   1.508       .  S
C1258      C1259   1.401       .  A
C1258      H1263   1.085       .  S
C1259      C1346   1.476       .  S
C1259      C1260   1.418       .  A
C1260      C1447   1.509       .  S
C1261      C1446   1.509       .  S
C1261      H1265   1.111       .  S
C1261      H1266   1.110       .  S
C1261      H1267   1.109       .  S
C1264      H1268   1.109       .  S
C1264      H1269   1.110       .  S
C1264      H1270   1.111       .  S
C1271      C1276   1.400       .  A
C1271      H1278   1.084       .  S
C1272      C1273   1.418       .  A
C1273      C1274   1.403       .  A
C1273      C1280   1.509       .  S
C1274      H1279   1.084       .  S
C1275      C1276   1.420   1_455  A
C1276      C1277   1.511       .  S
C1277      H1281   1.111       .  S
C1277      H1282   1.109       .  S
C1277      H1283   1.110       .  S
C1280      H1284   1.110       .  S
C1280      H1285   1.110       .  S
C1280      H1286   1.111       .  S
C1287      C1292   1.401   1_554  A
C1287      H1294   1.085       .  S
C1288      C1289   1.416       .  A
C1289      C1290   1.403       .  A
C1289      C1296   1.506       .  S
C1290      C1291   1.399       .  A
C1290      H1295   1.085       .  S
C1291      C1306   1.472   1_554  S
C1292      C1479   1.507       .  S
C1293      C1478   1.505       .  S
C1293      H1297   1.111       .  S
C1293      H1299   1.109       .  S
C1296      H1300   1.109       .  S
C1296      H1302   1.111       .  S
O1303     Cd1308   2.379       .  S
C1304      O1313   1.275       .  A
C1304      O1309   1.270       .  A
C1304      C1391   1.518       .  S
O1305      C1311   1.270   1_655  A
C1306      O1314   1.279       .  A
C1307      O1310   1.278       .  A
C1307      C1458   1.487       .  S
Cd1308     O1313   2.471       .  S
Cd1308     O1309   2.322       .  S
Cd1308     O1310   2.382       .  S
C1311      O1315   1.275       .  A
C1311      C1390   1.520   1_455  S
O1316     Cd1321   2.367       .  S
O1316      C1319   1.276   1_655  A
C1317      O1326   1.275       .  A
C1317      O1322   1.271   1_455  A
C1317      C1381   1.521   1_455  S
O1318      C1324   1.271       .  A
C1319      C1461   1.487   1_455  S
C1320      O1323   1.278       .  A
C1320      C1474   1.469       .  S
Cd1321     O1326   2.475   1_655  S
Cd1321     O1322   2.328       .  S
Cd1321     O1323   2.394       .  S
C1324      O1328   1.275       .  A
C1324      C1386   1.517       .  S
O1329     Cd1334   2.321       .  S
O1329      C1332   1.272       .  A
C1330      O1339   1.279       .  A
C1330      O1335   1.279       .  A
C1330      C1442   1.477       .  S
O1331     Cd1334   2.374       .  S
O1331      C1337   1.276       .  A
C1332      O1340   1.275       .  A
C1332      C1387   1.519       .  S
C1333      O1338   1.271       .  A
C1333      O1336   1.276       .  A
C1333      C1392   1.520       .  S
Cd1334     O1341   2.393       .  S
Cd1334     O1340   2.471       .  S
Cd1334     O1339   2.391       .  S
Cd1334     O1335   2.381       .  S
Cd1334     O1338   2.322       .  S
Cd1334     O1336   2.476       .  S
C1337      O1341   1.281       .  A
C1337      C1426   1.488       .  S
O1342     Cd1347   2.376       .  S
O1342      C1345   1.280       .  A
C1343      O1352   1.275       .  A
C1343      O1348   1.271       .  A
C1343      C1383   1.519       .  S
O1344     Cd1347   2.324       .  S
O1344      C1350   1.270       .  A
C1345      O1353   1.278       .  A
C1345      C1429   1.488       .  S
C1346      O1351   1.278       .  A
C1346      O1349   1.280       .  A
Cd1347     O1354   2.472       .  S
Cd1347     O1353   2.389       .  S
Cd1347     O1352   2.474       .  S
Cd1347     O1348   2.327       .  S
Cd1347     O1351   2.374       .  S
Cd1347     O1349   2.397       .  S
C1350      O1354   1.275       .  A
C1350      C1382   1.520       .  S
O1355     Cd1360   2.376       .  S
O1355      C1358   1.278       .  A
C1356      O1365   1.275       .  A
C1356      O1361   1.271       .  A
C1356      C1389   1.519       .  S
O1357      C1363   1.270       .  A
C1358      O1366   1.280       .  A
C1358      C1413   1.475       .  S
C1359      O1364   1.279       .  A
C1359      O1362   1.279       .  A
C1359      C1397   1.472       .  S
Cd1360     O1367   2.473       .  S
Cd1360     O1366   2.392       .  S
C1363      C1384   1.519       .  S
O1368     Cd1373   2.375       .  S
O1368      C1371   1.278       .  A
C1369      O1378   1.275       .  A
C1369      O1374   1.270       .  A
C1369      C1388   1.520       .  S
O1370      C1376   1.270       .  A
C1371      O1379   1.279       .  A
C1371      C1410   1.476       .  S
C1372      O1377   1.278       .  A
C1372      O1375   1.280       .  A
C1372      C1394   1.472       .  S
Cd1373     O1380   2.470       .  S
Cd1373     O1379   2.392       .  S
Cd1373     O1378   2.469       .  S
Cd1373     O1374   2.335       .  S
Cd1373     O1377   2.372       .  S
Cd1373     O1375   2.397       .  S
C1376      C1385   1.518       .  S
C1381      C1382   1.404       .  D
C1382      C1383   1.587       .  S
C1383      C1384   1.405   1_565  D
C1385      C1386   1.403   1_545  D
C1387      C1388   1.402       .  D
C1387      C1392   1.587       .  S
C1389      C1390   1.405       .  D
C1391      C1392   1.404       .  D
C1393      C1394   1.400       .  A
C1393      C1398   1.399       .  A
C1393      H1400   1.085       .  S
C1394      C1395   1.419       .  A
C1395      C1396   1.402       .  A
C1395      C1402   1.510       .  S
C1396      C1397   1.400       .  A
C1396      H1401   1.085       .  S
C1397      C1398   1.419       .  A
C1398      C1399   1.510       .  S
C1399      H1403   1.111       .  S
C1399      H1404   1.111       .  S
C1402      H1406   1.104       .  S
C1402      H1407   1.111       .  S
C1402      H1408   1.110       .  S
C1409      C1410   1.400       .  A
C1409      C1414   1.401       .  A
C1409      H1416   1.085       .  S
C1410      C1411   1.417       .  A
C1411      C1412   1.403       .  A
C1411      C1418   1.508       .  S
C1412      C1413   1.401       .  A
C1412      H1417   1.085       .  S
C1413      C1414   1.417       .  A
C1414      C1415   1.509       .  S
C1415      H1419   1.111       .  S
C1415      H1420   1.109       .  S
C1415      H1421   1.109       .  S
C1418      H1423   1.110       .  S
C1418      H1424   1.111       .  S
C1425      C1426   1.407       .  A
C1425      C1430   1.403       .  A
C1425      H1432   1.084       .  S
C1426      C1427   1.419       .  A
C1427      C1428   1.401       .  A
C1427      C1434   1.511       .  S
C1428      C1429   1.406       .  A
C1428      H1433   1.084       .  S
C1429      C1430   1.418       .  A
C1430      C1431   1.510       .  S
C1431      H1435   1.111       .  S
C1431      H1436   1.110       .  S
C1431      H1437   1.110       .  S
C1434      H1438   1.109       .  S
C1434      H1439   1.110       .  S
C1434      H1440   1.111       .  S
C1441      C1442   1.401       .  A
C1441      C1446   1.401   1_556  A
C1441      H1448   1.085       .  S
C1442      C1443   1.418       .  A
C1443      C1444   1.403       .  A
C1443      C1450   1.508       .  S
C1444      C1445   1.401       .  A
C1444      H1449   1.085       .  S
C1445      C1446   1.418   1_556  A
C1447      H1451   1.111       .  S
C1447      H1452   1.110       .  S
C1447      H1453   1.109       .  S
C1450      H1454   1.109       .  S
C1450      H1455   1.110       .  S
C1450      H1456   1.111       .  S
C1457      C1462   1.401       .  A
C1457      H1464   1.084       .  S
C1458      C1459   1.419       .  A
C1459      C1460   1.403       .  A
C1459      C1466   1.510       .  S
C1460      H1465   1.084       .  S
C1461      C1462   1.420       .  A
C1462      C1463   1.511       .  S
C1463      H1467   1.111       .  S
C1463      H1468   1.109       .  S
C1463      H1469   1.110       .  S
C1466      H1470   1.110       .  S
C1466      H1471   1.110       .  S
C1466      H1472   1.111       .  S
C1473      C1478   1.400       .  A
C1473      H1480   1.085       .  S
C1474      C1475   1.416       .  A
C1475      C1476   1.402       .  A
C1475      C1482   1.505       .  S
C1476      C1477   1.398       .  A
C1476      H1481   1.085       .  S
C1479      H1483   1.111       .  S
C1479      H1485   1.109       .  S
C1482      H1486   1.109       .  S
C1482      H1488   1.111       .  S
