geometry optimzed in LAMMPS
_audit_creation_date              2020-11-30 
_audit_creation_method            'lammps2cif' 
_symmetry_space_group_name_H-M    'P1' 
_symmetry_Int_Tables_number       1 
_symmetry_cell_setting            triclinic 
loop_ 
_symmetry_equiv_pos_as_xyz 
  x,y,z 
_cell_length_a                    93.75930014 
_cell_length_b                    65.26273778906135 
_cell_length_c                    56.92535197447129 
_cell_angle_alpha                 90.01484033113894 
_cell_angle_beta                  90.22735297069462 
_cell_angle_gamma                 90.01656958518767 
loop_ 
_atom_site_label 
_atom_site_type_symbol 
_atom_site_fract_x 
_atom_site_fract_y 
_atom_site_fract_z 
_atom_site_charge 
N1          N  0.79676633  0.48595951  0.61668497    -0.26900
N2          N  0.80956850  0.47916071  0.62240580    -0.34700
C3          C  0.81269837  0.48529296  0.64436149     0.01500
C4          C  0.80119745  0.49627828  0.65308726     0.07500
C5          C  0.79132217  0.49640027  0.63489199    -0.05600
H6          H  0.82293424  0.48286640  0.65267648     0.08200
H7          H  0.78105819  0.50394012  0.63461704     0.09400
Cu8        Cu  0.82275370  0.46381914  0.59915822     0.44200
Cu9        Cu  0.78796122  0.48239319  0.58370927     0.42000
Cu10       Cu  0.81173784  0.46454335  0.53783991     0.43900
N11         N  0.83574776  0.45451078  0.57179257    -0.34200
N12         N  0.83219577  0.45624174  0.54935535    -0.28500
C13         C  0.84375582  0.45203235  0.53620161    -0.04600
C14         C  0.85493805  0.44693028  0.55107726     0.07600
C15         C  0.84948355  0.44866618  0.57348183     0.01400
H16         H  0.84407794  0.45296897  0.51724143     0.09100
H17         H  0.85532566  0.44718332  0.58982092     0.08200
N18         N  0.79007619  0.47099481  0.53249541    -0.35700
N19         N  0.78154625  0.47713759  0.54955956    -0.27900
C20         C  0.76813019  0.47842383  0.54137857    -0.03100
C21         C  0.76811836  0.47302438  0.51794393     0.05500
C22         C  0.78221282  0.46839440  0.51281821     0.03600
H23         H  0.75898633  0.48260915  0.55188073     0.08700
H24         H  0.78632433  0.46270207  0.49632414     0.07500
N25         N  0.94051482  0.46376196  0.50485325    -0.26900
N26         N  0.92873516  0.47482067  0.50533993    -0.34700
C27         C  0.93169451  0.49388967  0.49786156     0.01500
C28         C  0.94604600  0.49479679  0.49218253     0.07500
C29         C  0.95129977  0.47542335  0.49702584    -0.05600
H30         H  0.92402161  0.50624120  0.49723209     0.08200
H31         H  0.96212749  0.47017733  0.49503598     0.09400
Cu32       Cu  0.90939605  0.46337018  0.51680501     0.44200
Cu33       Cu  0.94148363  0.43358164  0.51557443     0.42000
Cu34       Cu  0.91021393  0.41266932  0.54416384     0.43900
N35         N  0.89171912  0.44926687  0.53128097    -0.34200
N36         N  0.89203104  0.43150784  0.54251735    -0.28500
C37         C  0.87892795  0.42782397  0.55131189    -0.04600
C38         C  0.86998560  0.44376136  0.54474493     0.07600
C39         C  0.87844177  0.45702969  0.53208991     0.01400
H40         H  0.87607814  0.41445176  0.56147588     0.09100
H41         H  0.87530486  0.47162130  0.52469343     0.08200
N42         N  0.92941306  0.39643117  0.53990927    -0.35700
N43         N  0.94055290  0.40415885  0.52881330    -0.27900
C44         C  0.95105464  0.39016320  0.52818902    -0.03100
C45         C  0.94641723  0.37261782  0.53942056     0.05500
C46         C  0.93267342  0.37720365  0.54684289     0.03600
H47         H  0.96143725  0.39278494  0.52054975     0.08700
H48         H  0.92553592  0.36720781  0.55636202     0.07500
N49         N  0.15360894  0.61421401  0.33518926    -0.26900
N50         N  0.13979609  0.61712720  0.33203934    -0.34700
C51         C  0.13568444  0.60803371  0.31192668     0.01500
C52         C  0.14750692  0.59911227  0.30162520     0.07500
C53         C  0.15870750  0.60327795  0.31695496    -0.05600
H54         H  0.12489131  0.60810192  0.30515825     0.08200
H55         H  0.16967332  0.59840094  0.31522994     0.09400
Cu56       Cu  0.12733264  0.63381406  0.35509575     0.44200
Cu57       Cu  0.16429460  0.62521775  0.36483085     0.42000
Cu58       Cu  0.14353663  0.65639130  0.40690293     0.43900
N59         N  0.11631929  0.65154907  0.37911709    -0.34200
N60         N  0.12207080  0.66031949  0.39784510    -0.28500
C61         C  0.11165069  0.66973403  0.41010077    -0.04600
C62         C  0.09882082  0.66663441  0.39843908     0.07600
C63         C  0.10219532  0.65490433  0.37907875     0.01400
H64         H  0.11313808  0.67699297  0.42702587     0.09100
H65         H  0.09481115  0.64843424  0.36645340     0.08200
N66         N  0.16487921  0.64791630  0.41163351    -0.35700
N67         N  0.17223470  0.63678875  0.39646763    -0.27900
C68         C  0.18543397  0.63368370  0.40511113    -0.03100
C69         C  0.18650992  0.64303325  0.42693772     0.05500
C70         C  0.17327510  0.65209839  0.43031461     0.03600
H71         H  0.19366534  0.62532135  0.39595262     0.08700
H72         H  0.16988274  0.66075925  0.44550885     0.07500
N73         N  0.01142772  0.64617729  0.42700157    -0.26900
N74         N  0.02323746  0.63528050  0.42832015    -0.34700
C75         C  0.01995026  0.61598689  0.43456059     0.01500
C76         C  0.00526619  0.61464365  0.43713469     0.07500
C77         C  0.00025379  0.63418371  0.43233165    -0.05600
H78         H  0.02774883  0.60410591  0.43777683     0.08200
H79         H  0.98931132  0.63938707  0.43293543     0.09400
Cu80       Cu  0.04302921  0.64816825  0.42236350     0.44200
Cu81       Cu  0.01168252  0.67714105  0.41979206     0.42000
Cu82       Cu  0.04597612  0.70425007  0.41776493     0.43900
N83         N  0.06179449  0.66380195  0.41591233    -0.34200
N84         N  0.06326764  0.68397137  0.41505799    -0.28500
C85         C  0.07700301  0.68833512  0.40995839    -0.04600
C86         C  0.08432642  0.67002091  0.40736019     0.07600
C87         C  0.07433292  0.65489821  0.41103455     0.01400
H88         H  0.08113147  0.70359451  0.40700073     0.09100
H89         H  0.07595831  0.63853508  0.40961477     0.08200
N90         N  0.02599783  0.71875788  0.41701265    -0.35700
N91         N  0.01382289  0.70849690  0.41682773    -0.27900
C92         C  0.00289802  0.72172379  0.41596416    -0.03100
C93         C  0.00827512  0.74140696  0.41549351     0.05500
C94         C  0.02300124  0.73899986  0.41645600     0.03600
H95         H  0.99179308  0.71727117  0.41658637     0.08700
H96         H  0.03092049  0.75105458  0.41678141     0.07500
N97         N  0.14221719  0.09114457  0.61433307    -0.26900
N98         N  0.12990768  0.09755136  0.62274110    -0.34700
C99         C  0.12689961  0.08698086  0.64238849     0.01500
C100        C  0.13785717  0.07313135  0.64671892     0.07500
C101        C  0.14733702  0.07619126  0.62830727    -0.05600
H102        H  0.11738779  0.08923780  0.65276642     0.08200
H103        H  0.15705858  0.06788841  0.62480991     0.09400
Cu104      Cu  0.11765343  0.11974446  0.60608048     0.44200
Cu105      Cu  0.15126288  0.10363669  0.58429418     0.42000
Cu106      Cu  0.13217814  0.14531930  0.55447143     0.43900
N107        N  0.10645359  0.14060518  0.58556936    -0.34200
N108        N  0.11174415  0.15044096  0.56724175    -0.28500
C109        C  0.10126066  0.16145571  0.55702931    -0.04600
C110        C  0.08882373  0.15826461  0.56948349     0.07600
C111        C  0.09247501  0.14482443  0.58723931     0.01400
H112        H  0.10232597  0.16967435  0.54062419     0.09100
H113        H  0.08531015  0.13766121  0.59961522     0.08200
N114        N  0.15210130  0.13451283  0.54438818    -0.35700
N115        N  0.15889325  0.11945990  0.55525290    -0.27900
C116        C  0.17148903  0.11634577  0.54467646    -0.03100
C117        C  0.17270208  0.12989683  0.52609767     0.05500
C118        C  0.16020450  0.14124653  0.52648274     0.03600
H119        H  0.17921162  0.10497123  0.55011991     0.08700
H120        H  0.15732435  0.15377349  0.51496992     0.07500
N121        N  0.00139042  0.14584853  0.53250586    -0.26900
N122        N  0.01264356  0.13384966  0.53470776    -0.34700
C123        C  0.00866952  0.11427923  0.53142985     0.01500
C124        C  0.99417898  0.11390342  0.52674152     0.07500
C125        C  0.98989872  0.13422648  0.52769038    -0.05600
H126        H  0.01581256  0.10128156  0.53244565     0.08200
H127        H  0.97918418  0.14011259  0.52577967     0.09400
Cu128      Cu  0.03264578  0.14483618  0.54290664     0.44200
Cu129      Cu  0.00237455  0.17725701  0.53781204     0.42000
Cu130      Cu  0.03709707  0.19973719  0.55237690     0.43900
N131        N  0.05173329  0.15851442  0.55173859    -0.34200
N132        N  0.05373284  0.17845468  0.55441497    -0.28500
C133        C  0.06749942  0.18171244  0.56035630    -0.04600
C134        C  0.07425735  0.16287956  0.56169823     0.07600
C135        C  0.06396119  0.14858616  0.55626358     0.01400
H136        H  0.07205598  0.19652925  0.56442441     0.09100
H137        H  0.06520236  0.13210994  0.55592990     0.08200
N138        N  0.01789069  0.21606159  0.55231875    -0.35700
N139        N  0.00542073  0.20770945  0.54707577    -0.27900
C140        C  0.99516200  0.22197477  0.54901892    -0.03100
C141        C  0.00133227  0.24028648  0.55602685     0.05500
C142        C  0.01581576  0.23596617  0.55769768     0.03600
H143        H  0.98404141  0.21925771  0.54496280     0.08700
H144        H  0.02423767  0.24652009  0.56249351     0.07500
N145        N  0.79663779  0.97064545  0.36137655    -0.26900
N146        N  0.80972699  0.96382641  0.35795803    -0.34700
C147        C  0.81431980  0.97015560  0.33682858     0.01500
C148        C  0.80357154  0.98148149  0.32629453     0.07500
C149        C  0.79254662  0.98156782  0.34247077    -0.05600
H150        H  0.82496178  0.96756849  0.33021405     0.08200
H151        H  0.78240285  0.98933264  0.34080917     0.09400
Cu152      Cu  0.82132462  0.94842863  0.38334739     0.44200
Cu153      Cu  0.78551147  0.96560647  0.39235334     0.42000
Cu154      Cu  0.80648136  0.94725044  0.44218339     0.43900
N155        N  0.83260822  0.93902762  0.41267014    -0.34200
N156        N  0.82768600  0.94007058  0.43439050    -0.28500
C157        C  0.83840719  0.93560928  0.44939255    -0.04600
C158        C  0.85044978  0.93107869  0.43636074     0.07600
C159        C  0.84639427  0.93340479  0.41321178     0.01400
H160        H  0.83753590  0.93579233  0.46833220     0.09100
H161        H  0.85318246  0.93229556  0.39793236     0.08200
N162        N  0.78445114  0.95224276  0.44328801    -0.35700
N163        N  0.77690991  0.95855527  0.42497739    -0.27900
C164        C  0.76307897  0.95962229  0.43102459    -0.03100
C165        C  0.76172094  0.95361718  0.45425084     0.05500
C166        C  0.77554554  0.94924953  0.46151670     0.03600
H167        H  0.75466377  0.96485094  0.41942472     0.08700
H168        H  0.77887011  0.94409042  0.47875916     0.07500
N169        N  0.93508836  0.95233422  0.48279051    -0.26900
N170        N  0.92259511  0.96150490  0.48447412    -0.34700
C171        C  0.92459545  0.98098953  0.49132464     0.01500
C172        C  0.93909165  0.98422918  0.49447285     0.07500
C173        C  0.94539512  0.96566261  0.48878442    -0.05600
H174        H  0.91612495  0.99215295  0.49264433     0.08200
H175        H  0.95667061  0.96220697  0.48838883     0.09400
Cu176      Cu  0.90358715  0.94764495  0.47528854     0.44200
Cu177      Cu  0.93750318  0.92300731  0.46976621     0.42000
Cu178      Cu  0.90616921  0.89938371  0.44347629     0.43900
N179        N  0.88630821  0.93295903  0.46028334    -0.34200
N180        N  0.88729803  0.91621105  0.44728355    -0.28500
C181        C  0.87448956  0.91253088  0.43732260    -0.04600
C182        C  0.86500300  0.92734625  0.44496317     0.07600
C183        C  0.87284476  0.94003259  0.45946029     0.01400
H184        H  0.87230814  0.90023513  0.42508716     0.09100
H185        H  0.86929318  0.95414508  0.46750125     0.08200
N186        N  0.92637011  0.88568780  0.44414373    -0.35700
N187        N  0.93764999  0.89462450  0.45369365    -0.27900
C188        C  0.94906160  0.88241443  0.45122425    -0.03100
C189        C  0.94490352  0.86485406  0.43947324     0.05500
C190        C  0.93037754  0.86731893  0.43549138     0.03600
H191        H  0.95959455  0.88598196  0.45787145     0.08700
H192        H  0.92329648  0.85665246  0.42674660     0.07500
N193        N  0.80444303  0.08120866  0.14412305    -0.26900
N194        N  0.81837679  0.08247923  0.14720211    -0.34700
C195        C  0.82207281  0.07197992  0.16656962     0.01500
C196        C  0.80984225  0.06383983  0.17644062     0.07500
C197        C  0.79886246  0.06979075  0.16152618    -0.05600
H198        H  0.83287948  0.07062336  0.17307278     0.08200
H199        H  0.78761316  0.06666811  0.16362574     0.09400
Cu200      Cu  0.83152511  0.10001183  0.12619013     0.44200
Cu201      Cu  0.79405086  0.09640743  0.11698614     0.42000
Cu202      Cu  0.81554172  0.13193009  0.08114432     0.43900
N203        N  0.84295379  0.12064498  0.10611758    -0.34200
N204        N  0.83731523  0.13306136  0.09023228    -0.28500
C205        C  0.84791565  0.14433795  0.08066633    -0.04600
C206        C  0.86074549  0.13847044  0.09093007     0.07600
C207        C  0.85714449  0.12337138  0.10681396     0.01400
H208        H  0.84651341  0.15506719  0.06635618     0.09100
H209        H  0.86437928  0.11460425  0.11772282     0.08200
N210        N  0.79373011  0.12581100  0.07557686    -0.35700
N211        N  0.78619695  0.11301457  0.08863184    -0.27900
C212        C  0.77282218  0.11192939  0.08012434    -0.03100
C213        C  0.77166910  0.12465443  0.06074243     0.05500
C214        C  0.78520911  0.13315591  0.05835388     0.03600
H215        H  0.76455286  0.10232942  0.08744449     0.08700
H216        H  0.78878530  0.14334359  0.04459802     0.07500
N217        N  0.94639327  0.12822477  0.04408495    -0.26900
N218        N  0.93619574  0.11575546  0.05111184    -0.34700
C219        C  0.94010677  0.09630464  0.04663134     0.01500
C220        C  0.95353313  0.09647269  0.03639614     0.07500
C221        C  0.95709295  0.11709624  0.03493622    -0.05600
H222        H  0.93356227  0.08302415  0.05029696     0.08200
H223        H  0.96650335  0.12366933  0.02701563     0.09400
Cu224      Cu  0.91724909  0.12671008  0.06495963     0.44200
Cu225      Cu  0.94464685  0.15980850  0.04697184     0.42000
Cu226      Cu  0.91094537  0.18254655  0.06659086     0.43900
N227        N  0.89815628  0.14033497  0.07454874    -0.34200
N228        N  0.89530102  0.16021077  0.07387397    -0.28500
C229        C  0.88137294  0.16288265  0.07925196    -0.04600
C230        C  0.87541150  0.14382074  0.08386099     0.07600
C231        C  0.88638949  0.13002996  0.08087196     0.01400
H232        H  0.87607253  0.17757819  0.08021854     0.09100
H233        H  0.88578024  0.11354361  0.08256945     0.08200
N234        N  0.92961011  0.19956201  0.05971460    -0.35700
N235        N  0.94159206  0.19092794  0.05250584    -0.27900
C236        C  0.95164105  0.20540267  0.04985459    -0.03100
C237        C  0.94586602  0.22430115  0.05539607     0.05500
C238        C  0.93187253  0.21995463  0.06186986     0.03600
H239        H  0.96251320  0.20222657  0.04476980     0.08700
H240        H  0.92391378  0.23084867  0.06760359     0.07500
N241        N  0.14702873  0.96398238  0.82153070    -0.26900
N242        N  0.13358972  0.95869541  0.81782228    -0.34700
C243        C  0.12926268  0.96643829  0.79703497     0.01500
C244        C  0.14049210  0.97721011  0.78715671     0.07500
C245        C  0.15154362  0.97539156  0.80329525    -0.05600
H246        H  0.11849940  0.96530525  0.79027177     0.08200
H247        H  0.16198909  0.98235205  0.80215923     0.09400
Cu248      Cu  0.12124015  0.94352732  0.84272419     0.44200
Cu249      Cu  0.15824478  0.95679303  0.85221573     0.42000
Cu250      Cu  0.13687834  0.93918043  0.90134863     0.43900
N251        N  0.11013378  0.93268843  0.87182854    -0.34200
N252        N  0.11546696  0.93227983  0.89340196    -0.28500
C253        C  0.10496700  0.92703757  0.90840855    -0.04600
C254        C  0.09257925  0.92354655  0.89561860     0.07600
C255        C  0.09626577  0.92727744  0.87251899     0.01400
H256        H  0.10618444  0.92616919  0.92728773     0.09100
H257        H  0.08916694  0.92730854  0.85748999     0.08200
N258        N  0.15897839  0.94456138  0.90353245    -0.35700
N259        N  0.16679752  0.95007757  0.88527479    -0.27900
C260        C  0.18058339  0.95132754  0.89198991    -0.03100
C261        C  0.18153993  0.94660400  0.91566939     0.05500
C262        C  0.16761563  0.94254084  0.92243500     0.03600
H263        H  0.18925061  0.95578858  0.88058927     0.08700
H264        H  0.16406321  0.93819279  0.93979053     0.07500
N265        N  0.00898080  0.94622833  0.94614172    -0.26900
N266        N  0.02168306  0.95415574  0.95053660    -0.34700
C267        C  0.01994242  0.97230564  0.96148897     0.01500
C268        C  0.00544118  0.97598588  0.96371176     0.07500
C269        C  0.99884255  0.95907642  0.95389192    -0.05600
H270        H  0.02855474  0.98231318  0.96687503     0.08200
H271        H  0.98750227  0.95623596  0.95261969     0.09400
Cu272      Cu  0.04049091  0.94004732  0.93947534     0.44200
Cu273      Cu  0.00604494  0.91804352  0.93045170     0.42000
Cu274      Cu  0.03695018  0.89156996  0.90720949     0.43900
N275        N  0.05724699  0.92551092  0.92204860    -0.34200
N276        N  0.05585269  0.90875396  0.90909771    -0.28500
C277        C  0.06831515  0.90515313  0.89801835    -0.04600
C278        C  0.07805973  0.92004349  0.90478106     0.07600
C279        C  0.07067106  0.93263548  0.91999532     0.01400
H280        H  0.07011881  0.89273278  0.88580994     0.09100
H281        H  0.07454153  0.94661773  0.92798220     0.08200
N282        N  0.01677139  0.87803972  0.91069781    -0.35700
N283        N  0.00561432  0.88809096  0.91891771    -0.27900
C284        C  0.99441601  0.87534003  0.92030858    -0.03100
C285        C  0.99864211  0.85609526  0.91292052     0.05500
C286        C  0.01286823  0.85844744  0.90665241     0.03600
H287        H  0.98398922  0.87983963  0.92649299     0.08700
H288        H  0.01997811  0.84661531  0.90037583     0.07500
N289        N  0.14832897  0.49731491  0.11966179    -0.26900
N290        N  0.13433660  0.49713635  0.12215527    -0.34700
C291        C  0.13073234  0.50889742  0.14057351     0.01500
C292        C  0.14303250  0.51720923  0.15023320     0.07500
C293        C  0.15402239  0.50932913  0.13656682    -0.05600
H294        H  0.11995810  0.51050433  0.14700090     0.08200
H295        H  0.16532455  0.51198534  0.13888738     0.09400
Cu296      Cu  0.12082307  0.47951431  0.10169031     0.44200
Cu297      Cu  0.15843218  0.48014380  0.09351328     0.42000
Cu298      Cu  0.13541238  0.44269734  0.06170759     0.43900
N299        N  0.10856774  0.45811850  0.08401996    -0.34200
N300        N  0.11375568  0.44354624  0.07037599    -0.28500
C301        C  0.10280100  0.43201095  0.06229287    -0.04600
C302        C  0.09020408  0.44002765  0.07114759     0.07600
C303        C  0.09430987  0.45659751  0.08463483     0.01400
H304        H  0.10384290  0.41959550  0.04982607     0.09100
H305        H  0.08738932  0.46705506  0.09394649     0.08200
N306        N  0.15684223  0.44857838  0.05395936    -0.35700
N307        N  0.16506397  0.46173749  0.06545674    -0.27900
C308        C  0.17804800  0.46201364  0.05537987    -0.03100
C309        C  0.17803642  0.44845714  0.03661384     0.05500
C310        C  0.16437103  0.44037118  0.03614269     0.03600
H311        H  0.18666261  0.47184030  0.06080373     0.08700
H312        H  0.16017388  0.42946550  0.02366646     0.07500
N313        N  0.00232083  0.45272403  0.03685712    -0.26900
N314        N  0.01393587  0.46412749  0.03687919    -0.34700
C315        C  0.01081511  0.48264918  0.02792118     0.01500
C316        C  0.99644914  0.48301440  0.02217458     0.07500
C317        C  0.99141903  0.46368687  0.02797521    -0.05600
H318        H  0.01846649  0.49488952  0.02559851     0.08200
H319        H  0.98078108  0.45774646  0.02516958     0.09400
Cu320      Cu  0.03342768  0.45303456  0.04802280     0.44200
Cu321      Cu  0.00265354  0.42233950  0.04722015     0.42000
Cu322      Cu  0.03756251  0.39810796  0.05866849     0.43900
N323        N  0.05248925  0.43918575  0.05689722    -0.34200
N324        N  0.05452336  0.41926512  0.05972660    -0.28500
C325        C  0.06851226  0.41607408  0.06442142    -0.04600
C326        C  0.07536467  0.43495161  0.06483260     0.07600
C327        C  0.06485280  0.44912791  0.06015506     0.01400
H328        H  0.07320732  0.40129119  0.06818784     0.09100
H329        H  0.06609258  0.46558476  0.05917493     0.08200
N330        N  0.01794367  0.38234942  0.05788230    -0.35700
N331        N  0.00553177  0.39146594  0.05414298    -0.27900
C332        C  0.99509943  0.37736041  0.05411174    -0.03100
C333        C  0.00103353  0.35826143  0.05807622     0.05500
C334        C  0.01560087  0.36203678  0.06034269     0.03600
H335        H  0.98396429  0.38079106  0.05108655     0.08700
H336        H  0.02395249  0.35081630  0.06277693     0.07500
N337        N  0.79567451  0.59411671  0.83620424    -0.26900
N338        N  0.80947234  0.59630406  0.83235754    -0.34700
C339        C  0.81298981  0.58597973  0.81280933     0.01500
C340        C  0.80082268  0.57668641  0.80400895     0.07500
C341        C  0.79002476  0.58224776  0.81925195    -0.05600
H342        H  0.82359766  0.58542989  0.80544645     0.08200
H343        H  0.77881655  0.57855953  0.81775192     0.09400
Cu344      Cu  0.82271174  0.61372703  0.85345614     0.44200
Cu345      Cu  0.78518689  0.60805838  0.86383978     0.42000
Cu346      Cu  0.80603645  0.64236933  0.90078297     0.43900
N347        N  0.83378137  0.63229518  0.87658088    -0.34200
N348        N  0.82781861  0.64343912  0.89329498    -0.28500
C349        C  0.83818761  0.65325672  0.90533478    -0.04600
C350        C  0.85119407  0.64782860  0.89575779     0.07600
C351        C  0.84800964  0.63441256  0.87776952     0.01400
H352        H  0.83644691  0.66260781  0.92075508     0.09100
H353        H  0.85550877  0.62630859  0.86676531     0.08200
N354        N  0.78454378  0.63555376  0.90646827    -0.35700
N355        N  0.77708765  0.62295543  0.89300465    -0.27900
C356        C  0.76385626  0.62107993  0.90174702    -0.03100
C357        C  0.76282928  0.63293393  0.92187325     0.05500
C358        C  0.77617937  0.64202842  0.92417304     0.03600
H359        H  0.75566899  0.61135509  0.89425315     0.08700
H360        H  0.77960967  0.65266734  0.93761264     0.07500
N361        N  0.93816059  0.63104189  0.93214540    -0.26900
N362        N  0.92635209  0.62007536  0.93274312    -0.34700
C363        C  0.92944232  0.60108675  0.94031525     0.01500
C364        C  0.94396559  0.60002004  0.94470907     0.07500
C365        C  0.94913895  0.61938458  0.93947429    -0.05600
H366        H  0.92158553  0.58925204  0.94337135     0.08200
H367        H  0.96000700  0.62471738  0.94129853     0.09400
Cu368      Cu  0.90665516  0.63239463  0.92468743     0.44200
Cu369      Cu  0.93799249  0.66167018  0.92289746     0.42000
Cu370      Cu  0.90361421  0.68728221  0.91194658     0.43900
N371        N  0.88786924  0.64695736  0.91562428    -0.34200
N372        N  0.88643954  0.66681771  0.91151551    -0.28500
C373        C  0.87280760  0.67052069  0.90510661    -0.04600
C374        C  0.86549408  0.65208176  0.90507008     0.07600
C375        C  0.87537375  0.63753079  0.91162700     0.01400
H376        H  0.86877137  0.68526029  0.89948816     0.09100
H377        H  0.87374068  0.62114520  0.91262230     0.08200
N378        N  0.92335946  0.70223065  0.91235419    -0.35700
N379        N  0.93557865  0.69260656  0.91614315    -0.27900
C380        C  0.94626401  0.70625774  0.91615500    -0.03100
C381        C  0.94063886  0.72552986  0.91240749     0.05500
C382        C  0.92607257  0.72242231  0.90975602     0.03600
H383        H  0.95735604  0.70237911  0.91897646     0.08700
H384        H  0.91801856  0.73403531  0.90689253     0.07500
N385        N  0.29499122  0.48062830  0.83734656    -0.26900
N386        N  0.30896462  0.47881245  0.83575877    -0.34700
C387        C  0.31352570  0.48914552  0.81681634     0.01500
C388        C  0.30186665  0.49806089  0.80576240     0.07500
C389        C  0.29024323  0.49218234  0.81932291    -0.05600
H390        H  0.32455919  0.49001661  0.81145670     0.08200
H391        H  0.27911778  0.49544486  0.81603729     0.09400
Cu392      Cu  0.32098605  0.46159213  0.85902873     0.44200
Cu393      Cu  0.28360779  0.46667864  0.86426455     0.42000
Cu394      Cu  0.30372183  0.43220354  0.90456853     0.43900
N395        N  0.33183382  0.44309284  0.88257190    -0.34200
N396        N  0.32576291  0.43148834  0.89874537    -0.28500
C397        C  0.33612355  0.42197485  0.91122509    -0.04600
C398        C  0.34923613  0.42817324  0.90249525     0.07600
C399        C  0.34605768  0.44161576  0.88453322     0.01400
H400        H  0.33428287  0.41241860  0.92643824     0.09100
H401        H  0.35357147  0.45023776  0.87407511     0.08200
N402        N  0.28215889  0.44002687  0.90819037    -0.35700
N403        N  0.27514252  0.45244555  0.89382472    -0.27900
C404        C  0.26187157  0.45528230  0.90207664    -0.03100
C405        C  0.26037561  0.44437765  0.92280058     0.05500
C406        C  0.27342767  0.43469005  0.92593662     0.03600
H407        H  0.25392463  0.46474531  0.89354182     0.08700
H408        H  0.27652901  0.42504588  0.94055274     0.07500
N409        N  0.43661633  0.44931934  0.93175303    -0.26900
N410        N  0.42478154  0.46020253  0.93215088    -0.34700
C411        C  0.42808716  0.47990596  0.93640369     0.01500
C412        C  0.44278804  0.48152779  0.93868893     0.07500
C413        C  0.44781697  0.46170706  0.93579006    -0.05600
H414        H  0.42034241  0.49211200  0.93795739     0.08200
H415        H  0.45870556  0.45645325  0.93745172     0.09400
Cu416      Cu  0.40494584  0.44678247  0.92763109     0.44200
Cu417      Cu  0.43629544  0.41799128  0.92732440     0.42000
Cu418      Cu  0.40184085  0.39070625  0.92522290     0.43900
N419        N  0.38607957  0.43106683  0.92163770    -0.34200
N420        N  0.38455511  0.41089571  0.92122404    -0.28500
C421        C  0.37083975  0.40650339  0.91574376    -0.04600
C422        C  0.36357746  0.42480633  0.91239918     0.07600
C423        C  0.37360004  0.43993001  0.91613245     0.01400
H424        H  0.36671431  0.39121565  0.91290826     0.09100
H425        H  0.37206100  0.45626577  0.91416036     0.08200
N426        N  0.42185617  0.37632996  0.92710459    -0.35700
N427        N  0.43404008  0.38659047  0.92678631    -0.27900
C428        C  0.44497295  0.37339211  0.92760411    -0.03100
C429        C  0.43958955  0.35379698  0.92880777     0.05500
C430        C  0.42486091  0.35611513  0.92847931     0.03600
H431        H  0.45609625  0.37781416  0.92795061     0.08700
H432        H  0.41695557  0.34404979  0.92901785     0.07500
N433        N  0.64149096  0.59718635  0.11300773    -0.26900
N434        N  0.62841091  0.60262934  0.11880019    -0.34700
C435        C  0.62493701  0.59359782  0.13923880     0.01500
C436        C  0.63644774  0.58192458  0.14674362     0.07500
C437        C  0.64669752  0.58446670  0.12951843    -0.05600
H438        H  0.61466213  0.59502954  0.14762674     0.08200
H439        H  0.65721657  0.57767646  0.12909124     0.09400
Cu440      Cu  0.61603501  0.62166482  0.09791438     0.44200
Cu441      Cu  0.65156367  0.60789973  0.08311946     0.42000
Cu442      Cu  0.63266509  0.64502271  0.04636599     0.43900
N443        N  0.60528082  0.63992584  0.07390177    -0.34200
N444        N  0.61116649  0.64894651  0.05550022    -0.28500
C445        C  0.60080955  0.65848983  0.04310119    -0.04600
C446        C  0.58788649  0.65516947  0.05423575     0.07600
C447        C  0.59113378  0.64319344  0.07348590     0.01400
H448        H  0.60240236  0.66596208  0.02635776     0.09100
H449        H  0.58365748  0.63649533  0.08571152     0.08200
N450        N  0.65377080  0.63558709  0.04060846    -0.35700
N451        N  0.66036377  0.62190603  0.05390861    -0.27900
C452        C  0.67355846  0.61870280  0.04553918    -0.03100
C453        C  0.67547386  0.63072681  0.02574688     0.05500
C454        C  0.66271509  0.64140985  0.02333857     0.03600
H455        H  0.68124049  0.60855228  0.05364226     0.08700
H456        H  0.66003422  0.65233418  0.00973013     0.07500
N457        N  0.50476255  0.63908323  0.99523978    -0.26900
N458        N  0.51525122  0.62728354  0.00280156    -0.34700
C459        C  0.51180649  0.60757581  0.99890970     0.01500
C460        C  0.49838994  0.60687963  0.98860141     0.07500
C461        C  0.49432494  0.62720785  0.98634126    -0.05600
H462        H  0.51866133  0.59476349  0.00311115     0.08200
H463        H  0.48437938  0.63293109  0.97925601     0.09400
Cu464      Cu  0.53361738  0.63873582  0.01836947     0.44200
Cu465      Cu  0.50507351  0.67064238  0.99887158     0.42000
Cu466      Cu  0.53658115  0.69381792  0.02655712     0.43900
N467        N  0.55164803  0.65315549  0.03158497    -0.34200
N468        N  0.55314052  0.67323836  0.03371302    -0.28500
C469        C  0.56644241  0.67727130  0.04163943    -0.04600
C470        C  0.57348411  0.65881067  0.04480191     0.07600
C471        C  0.56376623  0.64390932  0.03846166     0.01400
H472        H  0.57054585  0.69243016  0.04534455     0.09100
H473        H  0.56542951  0.62751105  0.03860230     0.08200
N474        N  0.51775840  0.70968227  0.01877819    -0.35700
N475        N  0.50659591  0.70120592  0.00832067    -0.27900
C476        C  0.49615480  0.71519325  0.00628688    -0.03100
C477        C  0.50079969  0.73338532  0.01615429     0.05500
C478        C  0.51461047  0.72935868  0.02377831     0.03600
H479        H  0.48577076  0.71213756  0.99879607     0.08700
H480        H  0.52187546  0.73992167  0.03226126     0.07500
N481        N  0.65328266  0.12233328  0.85489495    -0.26900
N482        N  0.64003087  0.12847829  0.85109082    -0.34700
C483        C  0.63562216  0.12131092  0.83013171     0.01500
C484        C  0.64659544  0.11017173  0.82002856     0.07500
C485        C  0.65764525  0.11117147  0.83631747    -0.05600
H486        H  0.62500606  0.12350290  0.82308501     0.08200
H487        H  0.66780868  0.10339913  0.83540272     0.09400
Cu488      Cu  0.62765675  0.14420240  0.87548594     0.44200
Cu489      Cu  0.66420695  0.12746987  0.88639474     0.42000
Cu490      Cu  0.64250411  0.14824587  0.93359544     0.43900
N491        N  0.61608590  0.15478622  0.90417526    -0.34200
N492        N  0.62135214  0.15504487  0.92575901    -0.28500
C493        C  0.61086233  0.15981449  0.94087522    -0.04600
C494        C  0.59849572  0.16318530  0.92814758     0.07600
C495        C  0.60216695  0.15989594  0.90493753     0.01400
H496        H  0.61209258  0.16046181  0.95976188     0.09100
H497        H  0.59506090  0.15996879  0.88991192     0.08200
N498        N  0.66393106  0.14062887  0.93734618    -0.35700
N499        N  0.67185722  0.13298061  0.92032598    -0.27900
C500        C  0.68505768  0.12932617  0.92881349    -0.03100
C501        C  0.68546379  0.13481337  0.95240363     0.05500
C502        C  0.67186273  0.14215106  0.95703019     0.03600
H503        H  0.69362033  0.12287077  0.91868210     0.08700
H504        H  0.66799866  0.14839706  0.97327192     0.07500
N505        N  0.51853869  0.15041877  0.99714916    -0.26900
N506        N  0.53022954  0.13934874  0.99489472    -0.34700
C507        C  0.52747111  0.12006217  0.00184312     0.01500
C508        C  0.51337973  0.11904242  0.00903497     0.07500
C509        C  0.50804762  0.13860369  0.00573749    -0.05600
H510        H  0.53497209  0.10750535  0.00074758     0.08200
H511        H  0.49711575  0.14354367  0.00779904     0.09400
Cu512      Cu  0.54854927  0.15069572  0.97926648     0.44200
Cu513      Cu  0.51690390  0.17992806  0.98467441     0.42000
Cu514      Cu  0.54487802  0.19879924  0.94629383     0.43900
N515        N  0.56434544  0.16312922  0.95818231    -0.34200
N516        N  0.56273823  0.17960671  0.94485699    -0.28500
C517        C  0.57458761  0.18206595  0.93179135    -0.04600
C518        C  0.58414100  0.16670720  0.93764669     0.07600
C519        C  0.57734056  0.15506932  0.95445678     0.01400
H520        H  0.57625294  0.19437284  0.91938030     0.09100
H521        H  0.58137662  0.14138968  0.96288844     0.08200
N522        N  0.52621048  0.21507375  0.95379900    -0.35700
N523        N  0.51617073  0.20779029  0.96776086    -0.27900
C524        C  0.50516219  0.22088312  0.96825975    -0.03100
C525        C  0.50837586  0.23742563  0.95419159     0.05500
C526        C  0.52183380  0.23332442  0.94526118     0.03600
H527        H  0.49537337  0.21832252  0.97782830     0.08700
H528        H  0.52772540  0.24248544  0.93278272     0.07500
N529        N  0.29837788  0.99991283  0.10785318    -0.26900
N530        N  0.31238885  0.00045292  0.11010648    -0.34700
C531        C  0.31589920  0.01261952  0.12833078     0.01500
C532        C  0.30350338  0.02049873  0.13813355     0.07500
C533        C  0.29259430  0.01191234  0.12461221    -0.05600
H534        H  0.32670784  0.01471679  0.13456410     0.08200
H535        H  0.28125214  0.01399213  0.12698917     0.09400
Cu536      Cu  0.32596104  0.98352861  0.08891553     0.44200
Cu537      Cu  0.28832522  0.98178037  0.08220952     0.42000
Cu538      Cu  0.31164459  0.94935560  0.04458627     0.43900
N539        N  0.33844226  0.96466932  0.06806123    -0.34200
N540        N  0.33351647  0.95138281  0.05245722    -0.28500
C541        C  0.34472465  0.94138518  0.04284406    -0.04600
C542        C  0.35720392  0.94908658  0.05273833     0.07600
C543        C  0.35273598  0.96379567  0.06851989     0.01400
H544        H  0.34388675  0.92989635  0.02920040     0.09100
H545        H  0.35941545  0.97320062  0.07968891     0.08200
N546        N  0.28952973  0.95296447  0.03983515    -0.35700
N547        N  0.28120052  0.96400790  0.05371542    -0.27900
C548        C  0.26777464  0.96351022  0.04514645    -0.03100
C549        C  0.26756679  0.95183669  0.02478979     0.05500
C550        C  0.28158635  0.94553048  0.02192151     0.03600
H551        H  0.25893660  0.97198959  0.05248994     0.08700
H552        H  0.28577140  0.93657062  0.00752193     0.07500
N553        N  0.44713175  0.95979660  0.03663473    -0.26900
N554        N  0.43648708  0.97125840  0.04405098    -0.34700
C555        C  0.44101057  0.99072421  0.04603876     0.01500
C556        C  0.45526246  0.99155334  0.03960120     0.07500
C557        C  0.45873817  0.97157840  0.03361127    -0.05600
H558        H  0.43428758  0.00343571  0.05111525     0.08200
H559        H  0.46871750  0.96610402  0.02651484     0.09400
Cu560      Cu  0.41607427  0.95964964  0.04820405     0.44200
Cu561      Cu  0.44464947  0.92894683  0.03037665     0.42000
Cu562      Cu  0.40856499  0.90639846  0.03239185     0.43900
N563        N  0.39577720  0.94708024  0.04638516    -0.34200
N564        N  0.39266243  0.92818570  0.03962629    -0.28500
C565        C  0.37831089  0.92589844  0.03990719    -0.04600
C566        C  0.37226268  0.94415902  0.04752564     0.07600
C567        C  0.38368087  0.95709830  0.05143985     0.01400
H568        H  0.37275228  0.91181020  0.03580702     0.09100
H569        H  0.38325142  0.97275686  0.05763157     0.08200
N570        N  0.42753317  0.88948567  0.02906447    -0.35700
N571        N  0.44031057  0.89806233  0.02847857    -0.27900
C572        C  0.45029895  0.88345937  0.02698422    -0.03100
C573        C  0.44370184  0.86452457  0.02653528     0.05500
C574        C  0.42918631  0.86895490  0.02781418     0.03600
H575        H  0.46163121  0.88651204  0.02657653     0.08700
H576        H  0.42043580  0.85817812  0.02747467     0.07500
N577        N  0.30189287  0.60314581  0.62611276    -0.26900
N578        N  0.31585008  0.60309684  0.62894928    -0.34700
C579        C  0.31925726  0.59149432  0.64762260     0.01500
C580        C  0.30681695  0.58366727  0.65723243     0.07500
C581        C  0.29597244  0.59161178  0.64311875    -0.05600
H582        H  0.33005195  0.58889069  0.65364347     0.08200
H583        H  0.28461977  0.58960441  0.64520007     0.09400
Cu584      Cu  0.32935304  0.61938446  0.60740026     0.44200
Cu585      Cu  0.29232233  0.61876683  0.59830267     0.42000
Cu586      Cu  0.31521613  0.65002697  0.55913602     0.43900
N587        N  0.34166210  0.63763744  0.58597044    -0.34200
N588        N  0.33682569  0.64957880  0.56893063    -0.28500
C589        C  0.34805143  0.65923884  0.55900560    -0.04600
C590        C  0.36040541  0.65270439  0.57025396     0.07600
C591        C  0.35590730  0.63903605  0.58710582     0.01400
H592        H  0.34734564  0.66942812  0.54405562     0.09100
H593        H  0.36253568  0.63047575  0.59920873     0.08200
N594        N  0.29339012  0.64449902  0.55350302    -0.35700
N595        N  0.28539012  0.63335044  0.56774696    -0.27900
C596        C  0.27212321  0.63211557  0.55884107    -0.03100
C597        C  0.27150303  0.64312958  0.53805885     0.05500
C598        C  0.28527931  0.65059730  0.53512533     0.03600
H599        H  0.26367546  0.62313998  0.56662551     0.08700
H600        H  0.28914770  0.65969599  0.52059334     0.07500
N601        N  0.44643259  0.63727296  0.53341339    -0.26900
N602        N  0.43672332  0.62597383  0.54399062    -0.34700
C603        C  0.44033676  0.60610211  0.54199301     0.01500
C604        C  0.45302487  0.60478977  0.52956770     0.07500
C605        C  0.45642573  0.62495768  0.52421145    -0.05600
H606        H  0.43404265  0.59354087  0.54876414     0.08200
H607        H  0.46519673  0.63041808  0.51368119     0.09400
Cu608      Cu  0.41825997  0.63853770  0.55756709     0.44200
Cu609      Cu  0.44536475  0.66891655  0.53175692     0.42000
Cu610      Cu  0.41148386  0.69289826  0.54454201     0.43900
N611        N  0.39864923  0.65279804  0.56069302    -0.34200
N612        N  0.39574073  0.67187685  0.55438358    -0.28500
C613        C  0.38154249  0.67494210  0.55630590    -0.04600
C614        C  0.37540070  0.65701904  0.56452456     0.07600
C615        C  0.38655909  0.64343902  0.56719859     0.01400
H616        H  0.37616490  0.68923310  0.55251506     0.09100
H617        H  0.38589648  0.62764487  0.57285830     0.08200
N618        N  0.43022158  0.70936224  0.53808200    -0.35700
N619        N  0.44255688  0.70034430  0.53372005    -0.27900
C620        C  0.45282790  0.71464772  0.53228381    -0.03100
C621        C  0.44675495  0.73373463  0.53572148     0.05500
C622        C  0.43236619  0.72977440  0.53938142     0.03600
H623        H  0.46399648  0.71132950  0.52947933     0.08700
H624        H  0.42419346  0.74078490  0.54385035     0.07500
N625        N  0.64497089  0.47891209  0.32592422    -0.26900
N626        N  0.63216868  0.47188324  0.32053228    -0.34700
C627        C  0.62883480  0.47810724  0.29863686     0.01500
C628        C  0.64007826  0.48970956  0.28980323     0.07500
C629        C  0.65006349  0.48988972  0.30784469    -0.05600
H630        H  0.61871268  0.47505676  0.29015641     0.08200
H631        H  0.65993800  0.49839649  0.30857667     0.09400
Cu632      Cu  0.61927444  0.45670043  0.34484360     0.44200
Cu633      Cu  0.65456569  0.47469636  0.35822591     0.42000
Cu634      Cu  0.63370348  0.45363822  0.40510091     0.43900
N635        N  0.60774904  0.44642902  0.37394264    -0.34200
N636        N  0.61274140  0.44648787  0.39575155    -0.28500
C637        C  0.60215494  0.44123797  0.41048937    -0.04600
C638        C  0.59002640  0.43726506  0.39737430     0.07600
C639        C  0.59394189  0.44063871  0.37428369     0.01400
H640        H  0.60320428  0.44042115  0.42939881     0.09100
H641        H  0.58708173  0.43990971  0.35898014     0.08200
N642        N  0.65522102  0.46118284  0.40872497    -0.35700
N643        N  0.66276215  0.46876799  0.39120291    -0.27900
C644        C  0.67629069  0.47158954  0.39830493    -0.03100
C645        C  0.67740120  0.46568542  0.42155012     0.05500
C646        C  0.66381959  0.45907571  0.42760700     0.03600
H647        H  0.68471393  0.47755668  0.38731519     0.08700
H648        H  0.66050534  0.45275065  0.44428352     0.07500
N649        N  0.50828750  0.44768523  0.45640331    -0.26900
N650        N  0.52071558  0.45602958  0.46169717    -0.34700
C651        C  0.51835936  0.47380771  0.47309162     0.01500
C652        C  0.50372855  0.47674121  0.47467489     0.07500
C653        C  0.49773369  0.45967035  0.46424961    -0.05600
H654        H  0.52662004  0.48443703  0.47840465     0.08200
H655        H  0.48651953  0.45645897  0.46174435     0.09400
Cu656      Cu  0.53976779  0.44395310  0.44913921     0.44200
Cu657      Cu  0.50596407  0.42169745  0.43657339     0.42000
Cu658      Cu  0.53603793  0.40024604  0.40766771     0.43900
N659        N  0.55582844  0.43323759  0.42714724    -0.34200
N660        N  0.55417666  0.41886068  0.41090609    -0.28500
C661        C  0.56607346  0.41811972  0.39767728    -0.04600
C662        C  0.57572689  0.43229857  0.40638496     0.07600
C663        C  0.56891966  0.44149334  0.42509472     0.01400
H664        H  0.56763794  0.40787099  0.38298516     0.09100
H665        H  0.57293564  0.45395419  0.43576368     0.08200
N666        N  0.51643591  0.38498968  0.41022269    -0.35700
N667        N  0.50534027  0.39375347  0.42024844    -0.27900
C668        C  0.49438441  0.38059945  0.42075116    -0.03100
C669        C  0.49864458  0.36229643  0.41074398     0.05500
C670        C  0.51278827  0.36565863  0.40424688     0.03600
H671        H  0.48419717  0.38398985  0.42867146     0.08700
H672        H  0.52013515  0.35463509  0.39693424     0.07500
N673        N  0.29300509  0.10641155  0.33023831    -0.26900
N674        N  0.30516098  0.11506301  0.32395896    -0.34700
C675        C  0.30849597  0.10884180  0.30211421     0.01500
C676        C  0.29807816  0.09537764  0.29435218     0.07500
C677        C  0.28839630  0.09420065  0.31265994    -0.05600
H678        H  0.31796903  0.11346400  0.29271288     0.08200
H679        H  0.27862442  0.08540805  0.31302481     0.09400
Cu680      Cu  0.31712280  0.13398236  0.34602743     0.44200
Cu681      Cu  0.28312227  0.11267331  0.36212097     0.42000
Cu682      Cu  0.30242046  0.14537879  0.40344497     0.43900
N683        N  0.32835285  0.14925881  0.37242907    -0.34200
N684        N  0.32313200  0.15290607  0.39358414    -0.28500
C685        C  0.33356426  0.16063659  0.40730726    -0.04600
C686        C  0.34584114  0.16227341  0.39405367     0.07600
C687        C  0.34219367  0.15477578  0.37211598     0.01400
H688        H  0.33247398  0.16389142  0.42584854     0.09100
H689        H  0.34931978  0.15221087  0.35750787     0.08200
N690        N  0.28152816  0.13552320  0.40845245    -0.35700
N691        N  0.27467693  0.12345152  0.39353042    -0.27900
C692        C  0.26144201  0.12002251  0.40162064    -0.03100
C693        C  0.25983488  0.13028384  0.42274985     0.05500
C694        C  0.27277031  0.14010605  0.42641822     0.03600
H695        H  0.25346735  0.11109471  0.39242772     0.08700
H696        H  0.27563430  0.14979545  0.44113351     0.07500
N697        N  0.43200024  0.14057252  0.43103477    -0.26900
N698        N  0.41972309  0.13159002  0.43569301    -0.34700
C699        C  0.42228817  0.11309250  0.44519511     0.01500
C700        C  0.43694574  0.11012236  0.44635526     0.07500
C701        C  0.44271699  0.12801461  0.43728210    -0.05600
H702        H  0.41403027  0.10299390  0.45156277     0.08200
H703        H  0.45389237  0.13184687  0.43570970     0.09400
Cu704      Cu  0.40013589  0.14518574  0.42887135     0.44200
Cu705      Cu  0.43344611  0.17027161  0.41874317     0.42000
Cu706      Cu  0.40036388  0.19716721  0.40553030     0.43900
N707        N  0.38209519  0.16016438  0.41644659    -0.34200
N708        N  0.38214968  0.17874277  0.40711997    -0.28500
C709        C  0.36904414  0.18276486  0.39841507    -0.04600
C710        C  0.36036872  0.16604451  0.40282620     0.07600
C711        C  0.36898259  0.15202037  0.41417983     0.01400
H712        H  0.36617212  0.19654580  0.38898021     0.09100
H713        H  0.36614057  0.13659171  0.41927730     0.08200
N714        N  0.42035531  0.21131259  0.40688776    -0.35700
N715        N  0.43226773  0.20128279  0.41170825    -0.27900
C716        C  0.44317899  0.21458970  0.41265142    -0.03100
C717        C  0.43801144  0.23399056  0.40797778     0.05500
C718        C  0.42346514  0.23137233  0.40443158     0.03600
H719        H  0.45407288  0.21045114  0.41674069     0.08700
H720        H  0.41565292  0.24322755  0.40112048     0.07500
N721        N  0.64059699  0.01214427  0.63594222    -0.26900
N722        N  0.62657463  0.01292689  0.63784791    -0.34700
C723        C  0.62319436  0.02410861  0.65692071     0.01500
C724        C  0.63572058  0.03071587  0.66759180     0.07500
C725        C  0.64652884  0.02267695  0.65381503    -0.05600
H726        H  0.61243066  0.02646661  0.66310152     0.08200
H727        H  0.65788641  0.02424022  0.65667733     0.09400
Cu728      Cu  0.61298568  0.99676109  0.61555109     0.44200
Cu729      Cu  0.65076238  0.99624690  0.60920646     0.42000
Cu730      Cu  0.62915305  0.96116956  0.57379558     0.43900
N731        N  0.60154254  0.97584740  0.59526185    -0.34200
N732        N  0.60728897  0.96200537  0.58117227    -0.28500
C733        C  0.59673763  0.95053484  0.57166432    -0.04600
C734        C  0.58378646  0.95776496  0.57993454     0.07600
C735        C  0.58728149  0.97382370  0.59472627     0.01400
H736        H  0.59832960  0.93851500  0.55884737     0.09100
H737        H  0.57995885  0.98344858  0.60436137     0.08200
N738        N  0.65074779  0.96726483  0.56755672    -0.35700
N739        N  0.65834887  0.98035706  0.58020724    -0.27900
C740        C  0.67145213  0.98202185  0.57088847    -0.03100
C741        C  0.67223922  0.96942984  0.55137146     0.05500
C742        C  0.65895366  0.96012088  0.54993843     0.03600
H743        H  0.67982143  0.99169179  0.57789879     0.08700
H744        H  0.65539658  0.94937559  0.53667373     0.07500
N745        N  0.49783670  0.96345003  0.53414851    -0.26900
N746        N  0.50731571  0.97632635  0.54292364    -0.34700
C747        C  0.50314123  0.99562347  0.53820262     0.01500
C748        C  0.49042592  0.99472209  0.52577069     0.07500
C749        C  0.48742848  0.97408569  0.52343774    -0.05600
H750        H  0.50932550  0.00918833  0.54222958     0.08200
H751        H  0.47857669  0.96728513  0.51400038     0.09400
Cu752      Cu  0.52634324  0.96625615  0.55740082     0.44200
Cu753      Cu  0.50027596  0.93211859  0.53570254     0.42000
Cu754      Cu  0.53507498  0.91148944  0.55202294     0.43900
N755        N  0.54616110  0.95379151  0.56480402    -0.34200
N756        N  0.54988108  0.93442309  0.56154078    -0.28500
C757        C  0.56400048  0.93261778  0.56613463    -0.04600
C758        C  0.56919637  0.95167793  0.57293407     0.07600
C759        C  0.55756873  0.96458349  0.57194605     0.01400
H760        H  0.56996845  0.91846965  0.56503139     0.09100
H761        H  0.55747145  0.98086009  0.57553896     0.08200
N762        N  0.51695486  0.89330180  0.54491747    -0.35700
N763        N  0.50440871  0.90127393  0.53939575    -0.27900
C764        C  0.49468332  0.88626722  0.53746681    -0.03100
C765        C  0.50128622  0.86773551  0.54176616     0.05500
C766        C  0.51545275  0.87274411  0.54643181     0.03600
H767        H  0.48352317  0.88872730  0.53348610     0.08700
H768        H  0.52389363  0.86231486  0.55145515     0.07500
C769        C  0.46614512  0.08059177  0.47784057    -0.01600
C770        C  0.46043217  0.06063219  0.47887070     0.07000
C771        C  0.44710824  0.05676591  0.46848203    -0.07500
C772        C  0.43944312  0.07238713  0.45724197     0.04500
C773        C  0.44489293  0.09262818  0.45695062    -0.14800
C774        C  0.45834625  0.09634814  0.46715173    -0.08100
C775        C  0.46818116  0.04361645  0.49071763     0.05400
C776        C  0.47176634  0.04550394  0.51461557    -0.09200
C777        C  0.47916844  0.02989679  0.52634821     0.00400
C778        C  0.48277607  0.01177897  0.51424436     0.00300
C779        C  0.47903456  0.00977538  0.49046378    -0.12800
C780        C  0.47196722  0.02556898  0.47858218     0.00700
C781        C  0.48252810  0.03257346  0.55093119     0.40000
C782        C  0.46920574  0.02318459  0.45375793     0.36700
C783        C  0.48016064  0.08514963  0.48708547     0.36400
C784        C  0.42643107  0.06682100  0.44520326     0.37100
N785        N  0.48523448  0.03474329  0.57062871    -0.43600
N786        N  0.46704172  0.02126559  0.43385040    -0.44100
N787        N  0.41605571  0.06219564  0.43547322    -0.41500
N788        N  0.49141138  0.08869683  0.49446902    -0.42900
H789        H  0.46280231  0.11166867  0.46701257     0.13300
H790        H  0.44272209  0.04138651  0.46900141     0.09800
H791        H  0.46874488  0.05922329  0.52412970     0.10800
H792        H  0.48194991  0.99599211  0.48097288     0.16600
C793        C  0.47075008  0.32276575  0.42722315    -0.01600
C794        C  0.47247825  0.30769922  0.40977509     0.07000
C795        C  0.48284916  0.31052452  0.39238062    -0.07500
C796        C  0.49158642  0.32800764  0.39229395     0.04500
C797        C  0.49002269  0.34307722  0.40998799    -0.14800
C798        C  0.47951821  0.34010676  0.42730470    -0.08100
C799        C  0.46360336  0.28884309  0.40952101     0.05400
C800        C  0.45336313  0.28619465  0.39173730    -0.09200
C801        C  0.44476505  0.26859987  0.39102323     0.00400
C802        C  0.44638281  0.25328310  0.40836337     0.00300
C803        C  0.45672296  0.25594792  0.42604204    -0.12800
C804        C  0.46529496  0.27350387  0.42674121     0.00700
C805        C  0.43498200  0.26610914  0.37159514     0.40000
C806        C  0.47601100  0.27523160  0.44493160     0.36700
C807        C  0.45983463  0.32094476  0.44494499     0.36400
C808        C  0.50159313  0.33034442  0.37330204     0.37100
N809        N  0.42720404  0.26403321  0.35593830    -0.43600
N810        N  0.48461495  0.27664501  0.45947466    -0.44100
N811        N  0.50958452  0.33211548  0.35799261    -0.41500
N812        N  0.45106402  0.31946828  0.45909258    -0.42900
H813        H  0.47812111  0.35131839  0.44114872     0.13300
H814        H  0.48410050  0.29900687  0.37879567     0.09800
H815        H  0.45215153  0.29786599  0.37831886     0.10800
H816        H  0.45812912  0.24424741  0.43937474     0.16600
C817        C  0.47572076  0.77205102  0.55124818    -0.01600
C818        C  0.47037696  0.79047422  0.54170258     0.07000
C819        C  0.45703405  0.79023199  0.53034504    -0.07500
C820        C  0.44905889  0.77208823  0.52840140     0.04500
C821        C  0.45451099  0.75357879  0.53767985    -0.14800
C822        C  0.46787478  0.75386304  0.54898134    -0.08100
C823        C  0.47861004  0.81005114  0.54297968     0.05400
C824        C  0.49211988  0.81125944  0.53242286    -0.09200
C825        C  0.49989578  0.82966820  0.53235584     0.00400
C826        C  0.49407688  0.84743577  0.54274539     0.00300
C827        C  0.48063235  0.84612665  0.55350730    -0.12800
C828        C  0.47298747  0.82766920  0.55393199     0.00700
C829        C  0.51344444  0.83014891  0.52043483     0.40000
C830        C  0.45956317  0.82704411  0.56626238     0.36700
C831        C  0.48899401  0.77154493  0.56417357     0.36400
C832        C  0.43562761  0.77279994  0.51595055     0.37100
N833        N  0.52430220  0.83051328  0.51084624    -0.43600
N834        N  0.44883913  0.82649581  0.57623897    -0.44100
N835        N  0.42486357  0.77346190  0.50595724    -0.41500
N836        N  0.49959730  0.77112568  0.57463577    -0.42900
H837        H  0.47211766  0.73985525  0.55650199     0.13300
H838        H  0.45290108  0.80427271  0.52272977     0.09800
H839        H  0.49648692  0.79784674  0.52379442     0.10800
H840        H  0.47610978  0.85958215  0.56182625     0.16600
C841        C  0.45960721  0.54939311  0.51231090    -0.01600
C842        C  0.47446349  0.54912844  0.50842576     0.07000
C843        C  0.48229865  0.56719962  0.51168616    -0.07500
C844        C  0.47566570  0.58532632  0.51891957     0.04500
C845        C  0.46071757  0.58580275  0.52245184    -0.14800
C846        C  0.45288909  0.56760640  0.51917464    -0.08100
C847        C  0.48199103  0.53036811  0.50029243     0.05400
C848        C  0.47765295  0.52120802  0.47916674    -0.09200
C849        C  0.48447830  0.50371235  0.47060771     0.00400
C850        C  0.49613384  0.49520663  0.48310947     0.00300
C851        C  0.50066493  0.50458975  0.50402684    -0.12800
C852        C  0.49362736  0.52190545  0.51280313     0.00700
C853        C  0.47957735  0.49539404  0.44849012     0.40000
C854        C  0.49829637  0.53037780  0.53496867     0.36700
C855        C  0.45107172  0.53108588  0.50973898     0.36400
C856        C  0.48469015  0.60279756  0.52350664     0.37100
N857        N  0.47555913  0.48874023  0.43081411    -0.43600
N858        N  0.50202685  0.53720298  0.55272414    -0.44100
N859        N  0.49203262  0.61670299  0.52717393    -0.41500
N860        N  0.44429115  0.51637716  0.50759096    -0.42900
H861        H  0.44145522  0.56757599  0.52175047     0.13300
H862        H  0.49370184  0.56712380  0.50861794     0.09800
H863        H  0.46894548  0.52789958  0.46918319     0.10800
H864        H  0.50954962  0.49813249  0.51377806     0.16600
C865        C  0.28813318  0.04216817  0.19485327    -0.01600
C866        C  0.29917222  0.05501679  0.20313104     0.07000
C867        C  0.31138173  0.05746024  0.18917974    -0.07500
C868        C  0.31282082  0.04713754  0.16763295     0.04500
C869        C  0.30208344  0.03332494  0.15990459    -0.14800
C870        C  0.28970325  0.03139883  0.17365175    -0.08100
C871        C  0.29827820  0.06570714  0.22640111     0.05400
C872        C  0.29641755  0.05405535  0.24696318    -0.09200
C873        C  0.29587709  0.06341578  0.26917548     0.00400
C874        C  0.29756776  0.08484567  0.27121133     0.00300
C875        C  0.29936133  0.09650606  0.25071482    -0.12800
C876        C  0.29952740  0.08721812  0.22847135     0.00700
C877        C  0.29422389  0.05059169  0.28964849     0.40000
C878        C  0.30055017  0.10017910  0.20801129     0.36700
C879        C  0.27489693  0.04023126  0.20752074     0.36400
C880        C  0.32511229  0.05193223  0.15346462     0.37100
N881        N  0.29289214  0.04029349  0.30604347    -0.43600
N882        N  0.30130249  0.11062651  0.19164169    -0.44100
N883        N  0.33494949  0.05604440  0.14218023    -0.41500
N884        N  0.26427461  0.03882448  0.21767387    -0.42900
H885        H  0.28121844  0.02121500  0.16804353     0.13300
H886        H  0.31985521  0.06754045  0.19515110     0.09800
H887        H  0.29556082  0.03751725  0.24567314     0.10800
H888        H  0.30047951  0.11301126  0.25208042     0.16600
C889        C  0.46529989  0.04633619  0.02552996    -0.01600
C890        C  0.48024150  0.04615469  0.02841660     0.07000
C891        C  0.48695821  0.02812049  0.03601587    -0.07500
C892        C  0.47907757  0.01026921  0.04027436     0.04500
C893        C  0.46413122  0.01023956  0.03668230    -0.14800
C894        C  0.45742340  0.02849416  0.02961404    -0.08100
C895        C  0.48902971  0.06462344  0.02365335     0.05400
C896        C  0.48681475  0.08240037  0.03701506    -0.09200
C897        C  0.49467097  0.10025093  0.03271018     0.00400
C898        C  0.50514749  0.10038420  0.01493472     0.00300
C899        C  0.50752826  0.08245984  0.00187631    -0.12800
C900        C  0.49950654  0.06473300  0.00593101     0.00700
C901        C  0.49202828  0.11797598  0.04723107     0.40000
C902        C  0.50181942  0.04713095  0.99104941     0.36700
C903        C  0.45783802  0.06448266  0.01777629     0.36400
C904        C  0.48657073  0.99259107  0.04925349     0.37100
N905        N  0.48986840  0.13215820  0.05889473    -0.43600
N906        N  0.50365558  0.03305975  0.97906287    -0.44100
N907        N  0.49265529  0.97851716  0.05653759    -0.41500
N908        N  0.45183932  0.07904234  0.01166590    -0.42900
H909        H  0.44598300  0.02876344  0.02669623     0.13300
H910        H  0.49842214  0.02806295  0.03879112     0.09800
H911        H  0.47888706  0.08231032  0.05085701     0.10800
H912        H  0.51539399  0.08246850  0.98794825     0.16600
C913        C  0.63123049  0.07636332  0.77196572    -0.01600
C914        C  0.64264905  0.07469288  0.75598402     0.07000
C915        C  0.65562677  0.08440929  0.76146788    -0.07500
C916        C  0.65731620  0.09568779  0.78233188     0.04500
C917        C  0.64573720  0.09781530  0.79801799    -0.14800
C918        C  0.63280165  0.08798764  0.79251599    -0.08100
C919        C  0.64109627  0.06334731  0.73327621     0.05400
C920        C  0.63032305  0.06919870  0.71740662    -0.09200
C921        C  0.62831836  0.05882294  0.69605401     0.00400
C922        C  0.63737695  0.04235152  0.68995959     0.00300
C923        C  0.64831981  0.03675297  0.70565005    -0.12800
C924        C  0.65015561  0.04691127  0.72718391     0.00700
C925        C  0.61720304  0.06593100  0.68044754     0.40000
C926        C  0.66107150  0.03966204  0.74308763     0.36700
C927        C  0.61791472  0.06574898  0.76806244     0.36400
C928        C  0.67088919  0.10544509  0.78666239     0.37100
N929        N  0.60826296  0.07167426  0.66801584    -0.43600
N930        N  0.66980997  0.03381396  0.75583617    -0.44100
N931        N  0.68183560  0.11313119  0.79001836    -0.41500
N932        N  0.60725933  0.05719035  0.76497725    -0.42900
H933        H  0.62390230  0.08906143  0.80455891     0.13300
H934        H  0.66443794  0.08337816  0.74923825     0.09800
H935        H  0.62345560  0.08202909  0.72171090     0.10800
H936        H  0.65527510  0.02402767  0.70134483     0.16600
C937        C  0.47493863  0.77577889  0.00022197    -0.01600
C938        C  0.47560809  0.78857479  0.02010296     0.07000
C939        C  0.48458070  0.78326796  0.03888554    -0.07500
C940        C  0.49293672  0.76545410  0.03804158     0.04500
C941        C  0.49244710  0.75268360  0.01795737    -0.14800
C942        C  0.48330017  0.75802019  0.99929074    -0.08100
C943        C  0.46726948  0.80783854  0.02135467     0.05400
C944        C  0.45414555  0.80802826  0.03307673    -0.09200
C945        C  0.44609554  0.82611644  0.03481366     0.00400
C946        C  0.45116659  0.84443498  0.02443566     0.00300
C947        C  0.46430257  0.84395945  0.01252398    -0.12800
C948        C  0.47236835  0.82599679  0.01109290     0.00700
C949        C  0.43312603  0.82550965  0.04834374     0.40000
C950        C  0.48602125  0.82666794  0.99946054     0.36700
C951        C  0.46565760  0.78053123  0.98067066     0.36400
C952        C  0.50127292  0.76017187  0.05852572     0.37100
N953        N  0.42276008  0.82484591  0.05929079    -0.43600
N954        N  0.49699503  0.82728630  0.99025469    -0.44100
N955        N  0.50787303  0.75595600  0.07505336    -0.41500
N956        N  0.45818437  0.78433057  0.96504281    -0.42900
H957        H  0.48273953  0.74836647  0.98383907     0.13300
H958        H  0.48499526  0.79304017  0.05427605     0.09800
H959        H  0.45028451  0.79404403  0.04115464     0.10800
H960        H  0.46838956  0.85772173  0.00429614     0.16600
C961        C  0.62668662  0.52075916  0.23784654    -0.01600
C962        C  0.63942326  0.52745920  0.22724054     0.07000
C963        C  0.65251052  0.52084849  0.23654542    -0.07500
C964        C  0.65307003  0.50801721  0.25630783     0.04500
C965        C  0.64027963  0.50193553  0.26760828    -0.14800
C966        C  0.62720389  0.50827445  0.25782075    -0.08100
C967        C  0.63922093  0.54156170  0.20665637     0.05400
C968        C  0.63265366  0.56079198  0.20889548    -0.09200
C969        C  0.63160539  0.57419086  0.18974072     0.00400
C970        C  0.63744145  0.56855278  0.16780195     0.00300
C971        C  0.64438505  0.54955053  0.16578786    -0.12800
C972        C  0.64520775  0.53602359  0.18485962     0.00700
C973        C  0.62483123  0.59378931  0.19339801     0.40000
C974        C  0.65170564  0.51621391  0.18133346     0.36700
C975        C  0.61291400  0.52623510  0.22830253     0.36400
C976        C  0.66692533  0.50089671  0.26384962     0.37100
N977        N  0.61934845  0.60944345  0.19647401    -0.43600
N978        N  0.65688955  0.50031966  0.17849602    -0.44100
N979        N  0.67811547  0.49529193  0.26961989    -0.41500
N980        N  0.60190000  0.53063953  0.22057910    -0.42900
H981        H  0.61726031  0.50382138  0.26598295     0.13300
H982        H  0.66234968  0.52577392  0.22832695     0.09800
H983        H  0.62824312  0.56529615  0.22571360     0.10800
H984        H  0.64883744  0.54496325  0.14903732     0.16600
C985        C  0.46944370  0.31651506  0.91720940    -0.01600
C986        C  0.46788249  0.30237512  0.93571360     0.07000
C987        C  0.45626765  0.30434414  0.95108046    -0.07500
C988        C  0.44646865  0.32044607  0.94855820     0.04500
C989        C  0.44831434  0.33496659  0.93045926    -0.14800
C990        C  0.45976263  0.33269579  0.91483771    -0.08100
C991        C  0.47838813  0.28565266  0.93954672     0.05400
C992        C  0.49250774  0.29059267  0.94572859    -0.09200
C993        C  0.50260725  0.27516369  0.95001263     0.00400
C994        C  0.49854351  0.25440021  0.94831313     0.00300
C995        C  0.48445496  0.24952761  0.94197015    -0.12800
C996        C  0.47444099  0.26491110  0.93739595     0.00700
C997        C  0.51680481  0.28100153  0.95729306     0.40000
C998        C  0.46027118  0.25908760  0.92995490     0.36700
C999        C  0.48081391  0.31458447  0.90032319     0.36400
C1000       C  0.43519524  0.32243890  0.96560126     0.37100
N1001       N  0.52816784  0.28570783  0.96320298    -0.43600
N1002       N  0.44892296  0.25448434  0.92387494    -0.44100
N1003       N  0.42619282  0.32402474  0.97933277    -0.41500
N1004       N  0.48991140  0.31296387  0.88677162    -0.42900
H1005       H  0.46122336  0.34376475  0.90083530     0.13300
H1006       H  0.45505529  0.29352509  0.96539855     0.09800
H1007       H  0.49557015  0.30654777  0.94753935     0.10800
H1008       H  0.48128052  0.23359430  0.94043728     0.16600
C1009       C  0.45223293  0.53211947  0.96735808    -0.01600
C1010       C  0.46605543  0.53580007  0.95879848     0.07000
C1011       C  0.47228558  0.52173402  0.94335552    -0.07500
C1012       C  0.46495823  0.50398878  0.93644810     0.04500
C1013       C  0.45104647  0.50018245  0.94503626    -0.14800
C1014       C  0.44482089  0.51452472  0.96032330    -0.08100
C1015       C  0.47428545  0.55408651  0.96614620     0.05400
C1016       C  0.48235968  0.55315297  0.98685060    -0.09200
C1017       C  0.49019749  0.57014035  0.99461423     0.00400
C1018       C  0.49011317  0.58849727  0.98135988     0.00300
C1019       C  0.48181639  0.58940967  0.96074152    -0.12800
C1020       C  0.47396490  0.57238201  0.95306317     0.00700
C1021       C  0.49759744  0.56851322  0.01681749     0.40000
C1022       C  0.46559675  0.57398704  0.93179857     0.36700
C1023       C  0.44555280  0.54608366  0.98361706     0.36400
C1024       C  0.47185803  0.49040456  0.92002185     0.37100
N1025       N  0.50347142  0.56712268  0.03466539    -0.43600
N1026       N  0.45886479  0.57522110  0.91477481    -0.44100
N1027       N  0.47749129  0.47958033  0.90689238    -0.41500
N1028       N  0.44024111  0.55725762  0.99671975    -0.42900
H1029       H  0.43422943  0.51178876  0.96725271     0.13300
H1030       H  0.48293439  0.52464211  0.93672154     0.09800
H1031       H  0.48240051  0.53915119  0.99709414     0.10800
H1032       H  0.48159316  0.60336318  0.95043519     0.16600
C1033       C  0.31383396  0.51694371  0.74591376    -0.01600
C1034       C  0.30411123  0.53289171  0.74116246     0.07000
C1035       C  0.29332497  0.53711528  0.75744585    -0.07500
C1036       C  0.29227358  0.52605665  0.77850828     0.04500
C1037       C  0.30211311  0.51015181  0.78350169    -0.14800
C1038       C  0.31278577  0.50581931  0.76688557    -0.08100
C1039       C  0.30505887  0.54559083  0.71951450     0.05400
C1040       C  0.29425536  0.54408990  0.70250418    -0.09200
C1041       C  0.29456696  0.55609705  0.68204988     0.00400
C1042       C  0.30577401  0.57034517  0.67852492     0.00300
C1043       C  0.31657839  0.57172685  0.69572919    -0.12800
C1044       C  0.31632851  0.55952333  0.71597003     0.00700
C1045       C  0.28355401  0.55266452  0.66472175     0.40000
C1046       C  0.32762347  0.56186233  0.73308881     0.36700
C1047       C  0.32484579  0.51149675  0.72938682     0.36400
C1048       C  0.28141418  0.53217308  0.79496580     0.37100
N1049       N  0.27467222  0.54971844  0.65095045    -0.43600
N1050       N  0.33671075  0.56365956  0.74675199    -0.44100
N1051       N  0.27265810  0.53726735  0.80799601    -0.41500
N1052       N  0.33369763  0.50709975  0.71620411    -0.42900
H1053       H  0.32030773  0.49351857  0.77012102     0.13300
H1054       H  0.28586312  0.54944505  0.75387813     0.09800
H1055       H  0.28562777  0.53327540  0.70510991     0.10800
H1056       H  0.32520739  0.58258828  0.69360992     0.16600
C1057       C  0.72406368  0.63387583  0.94096720    -0.01600
C1058       C  0.72519604  0.63669730  0.96543130     0.07000
C1059       C  0.73874152  0.63857870  0.97568093    -0.07500
C1060       C  0.75113436  0.63751284  0.96199006     0.04500
C1061       C  0.75007635  0.63492301  0.93732712    -0.14800
C1062       C  0.73640877  0.63320881  0.92715706    -0.08100
C1063       C  0.71249560  0.63564960  0.98090956     0.05400
C1064       C  0.70901214  0.61680322  0.99110233    -0.09200
C1065       C  0.69710879  0.61479170  0.00572401     0.00400
C1066       C  0.68834602  0.63200814  0.01045702     0.00300
C1067       C  0.69191972  0.65092786  0.00015262    -0.12800
C1068       C  0.70390489  0.65287181  0.98558484     0.00700
C1069       C  0.69395874  0.59461553  0.01468348     0.40000
C1070       C  0.70726871  0.67268806  0.97581755     0.36700
C1071       C  0.71037432  0.63078282  0.92981234     0.36400
C1072       C  0.76468503  0.63749668  0.97408941     0.37100
N1073       N  0.69161365  0.57833642  0.02174674    -0.43600
N1074       N  0.70994987  0.68861532  0.96806845    -0.44100
N1075       N  0.77548842  0.63732732  0.98399380    -0.41500
N1076       N  0.69941724  0.62813709  0.92088372    -0.42900
H1077       H  0.73533085  0.63108440  0.90835223     0.13300
H1078       H  0.73963372  0.64016743  0.99459677     0.09800
H1079       H  0.71558603  0.60352400  0.98740439     0.10800
H1080       H  0.68544241  0.66431540  0.00370721     0.16600
C1081       C  0.98845499  0.52808730  0.98245318    -0.01600
C1082       C  0.97439424  0.53312474  0.98884266     0.07000
C1083       C  0.96745945  0.52154619  0.00609027    -0.07500
C1084       C  0.97439348  0.50514667  0.01717620     0.04500
C1085       C  0.98854278  0.50008694  0.01089051    -0.14800
C1086       C  0.99542617  0.51175448  0.99354647    -0.08100
C1087       C  0.96673236  0.55040865  0.97763340     0.05400
C1088       C  0.95655014  0.54619192  0.96022649    -0.09200
C1089       C  0.94921858  0.56210005  0.94892430     0.00400
C1090       C  0.95193359  0.58268690  0.95529492     0.00300
C1091       C  0.96227535  0.58683772  0.97259272    -0.12800
C1092       C  0.96963596  0.57090376  0.98379144     0.00700
C1093       C  0.93951584  0.55686640  0.93010461     0.40000
C1094       C  0.97997145  0.57587759  0.00178001     0.36700
C1095       C  0.99581013  0.53930142  0.96429932     0.36400
C1096       C  0.96696324  0.49444314  0.03563854     0.37100
N1097       N  0.93181059  0.55260522  0.91493920    -0.43600
N1098       N  0.98826268  0.57983771  0.01619507    -0.44100
N1099       N  0.96100165  0.48589767  0.05046377    -0.41500
N1100       N  0.00164630  0.54831507  0.94970713    -0.42900
H1101       H  0.00623341  0.50793498  0.98839530     0.13300
H1102       H  0.95664482  0.52551479  0.01108683     0.09800
H1103       H  0.95448872  0.53042896  0.95524157     0.10800
H1104       H  0.96442077  0.60253829  0.97771912     0.16600
C1105       C  0.19761778  0.44249998  0.97873143    -0.01600
C1106       C  0.21194324  0.44088460  0.98618593     0.07000
C1107       C  0.21497376  0.44034625  0.01031674    -0.07500
C1108       C  0.20407127  0.44218166  0.02698171     0.04500
C1109       C  0.18977035  0.44475621  0.01958668    -0.14800
C1110       C  0.18668272  0.44433626  0.99539650    -0.08100
C1111       C  0.22399086  0.44112307  0.96921760     0.05400
C1112       C  0.22717152  0.45947021  0.95757199    -0.09200
C1113       C  0.23895833  0.46096658  0.94259297     0.00400
C1114       C  0.24775362  0.44365885  0.93864558     0.00300
C1115       C  0.24452228  0.42527454  0.95038170    -0.12800
C1116       C  0.23279051  0.42390478  0.96556772     0.00700
C1117       C  0.24223132  0.48083776  0.93286752     0.40000
C1118       C  0.22987026  0.40463265  0.97700517     0.36700
C1119       C  0.19393776  0.44220433  0.95408349     0.36400
C1120       C  0.20780026  0.44067314  0.05153932     0.37100
N1121       N  0.24483097  0.49684620  0.92525448    -0.43600
N1122       N  0.22752449  0.38917022  0.98615620    -0.44100
N1123       N  0.21080066  0.43930127  0.07121456    -0.41500
N1124       N  0.19101983  0.44186086  0.93431376    -0.42900
H1125       H  0.17571738  0.44601254  0.98945129     0.13300
H1126       H  0.22597884  0.43882504  0.01616073     0.09800
H1127       H  0.22061335  0.47288738  0.96075212     0.10800
H1128       H  0.25112688  0.41185721  0.94756634     0.16600
C1129       C  0.95401351  0.77773350  0.89319826    -0.01600
C1130       C  0.96486158  0.78159946  0.90987673     0.07000
C1131       C  0.96731769  0.76736356  0.92784657    -0.07500
C1132       C  0.95938497  0.74926140  0.92918914     0.04500
C1133       C  0.94866057  0.74512202  0.91229020    -0.14800
C1134       C  0.94594799  0.75963692  0.89460340    -0.08100
C1135       C  0.97335832  0.80081303  0.90984292     0.05400
C1136       C  0.97150943  0.81465291  0.92838171    -0.09200
C1137       C  0.97967391  0.83255934  0.92991232     0.00400
C1138       C  0.98991472  0.83704537  0.91240192     0.00300
C1139       C  0.99189701  0.82295105  0.89401504    -0.12800
C1140       C  0.98376051  0.80493265  0.89265071     0.00700
C1141       C  0.97780037  0.84529598  0.95040973     0.40000
C1142       C  0.98655793  0.79061394  0.87389926     0.36700
C1143       C  0.95091348  0.79221371  0.87471042     0.36400
C1144       C  0.96213371  0.73562082  0.94866138     0.37100
N1145       N  0.97623350  0.85533084  0.96696675    -0.43600
N1146       N  0.98881904  0.77911676  0.85889014    -0.44100
N1147       N  0.96434578  0.72470991  0.96427938    -0.41500
N1148       N  0.94851456  0.80384013  0.85986690    -0.42900
H1149       H  0.93771811  0.75664716  0.88160246     0.13300
H1150       H  0.97547548  0.77047210  0.94095050     0.09800
H1151       H  0.96375315  0.81126339  0.94194349     0.10800
H1152       H  0.99978494  0.82605156  0.88059275     0.16600
C1153       C  0.20742456  0.96082030  0.96453610    -0.01600
C1154       C  0.21927238  0.94802649  0.95995197     0.07000
C1155       C  0.21859674  0.93470560  0.94053712    -0.07500
C1156       C  0.20640743  0.93395527  0.92600889     0.04500
C1157       C  0.19459153  0.94673402  0.93070318    -0.14800
C1158       C  0.19525392  0.96000775  0.95006907    -0.08100
C1159       C  0.23205917  0.94776985  0.97592856     0.05400
C1160       C  0.23022262  0.94261628  0.99970673    -0.09200
C1161       C  0.24162985  0.94350343  0.01575425     0.00400
C1162       C  0.25538288  0.94922703  0.00809043     0.00300
C1163       C  0.25737880  0.95353863  0.98412931    -0.12800
C1164       C  0.24588059  0.95310688  0.96815488     0.00700
C1165       C  0.23895916  0.93809256  0.03992125     0.40000
C1166       C  0.24841717  0.95936043  0.94421962     0.36700
C1167       C  0.20761273  0.97519537  0.98381284     0.36400
C1168       C  0.20590027  0.91911704  0.90721264     0.37100
N1169       N  0.23675057  0.93372150  0.05926890    -0.43600
N1170       N  0.25054982  0.96453413  0.92510969    -0.44100
N1171       N  0.20536777  0.90709731  0.89228302    -0.41500
N1172       N  0.20781305  0.98666024  0.99932092    -0.42900
H1173       H  0.18627500  0.96995838  0.95375848     0.13300
H1174       H  0.22748258  0.92453504  0.93704287     0.09800
H1175       H  0.21973302  0.93815248  0.00584291     0.10800
H1176       H  0.26785392  0.95810289  0.97802914     0.16600
C1177       C  0.95824447  0.27754061  0.07404062    -0.01600
C1178       C  0.96878130  0.28197810  0.05717014     0.07000
C1179       C  0.97126543  0.26789735  0.03907647    -0.07500
C1180       C  0.96367107  0.24940323  0.03782623     0.04500
C1181       C  0.95342265  0.24448185  0.05518871    -0.14800
C1182       C  0.95068548  0.25892450  0.07297549    -0.08100
C1183       C  0.97699239  0.30154265  0.05749625     0.05400
C1184       C  0.98879822  0.30363242  0.07256145    -0.09200
C1185       C  0.99690538  0.32178002  0.07294814     0.00400
C1186       C  0.99319761  0.33832116  0.05804602     0.00300
C1187       C  0.98131879  0.33608863  0.04304455    -0.12800
C1188       C  0.97330737  0.31794881  0.04260255     0.00700
C1189       C  0.00855196  0.32326909  0.08950701     0.40000
C1190       C  0.96124811  0.31653963  0.02683553     0.36700
C1191       C  0.95487086  0.29207774  0.09230048     0.36400
C1192       C  0.96614778  0.23630496  0.01781521     0.37100
N1193       N  0.01788067  0.32445977  0.10281416    -0.43600
N1194       N  0.95157907  0.31538125  0.01420763    -0.44100
N1195       N  0.96810865  0.22589005  0.00169036    -0.41500
N1196       N  0.95215430  0.30385000  0.10681415    -0.42900
H1197       H  0.94278731  0.25555171  0.08628067     0.13300
H1198       H  0.97909109  0.27149593  0.02571198     0.09800
H1199       H  0.99165425  0.29105528  0.08409127     0.10800
H1200       H  0.97831692  0.34850582  0.03139717     0.16600
C1201       C  0.96104686  0.04487477  0.00817012    -0.01600
C1202       C  0.97610542  0.04452440  0.00714727     0.07000
C1203       C  0.98374901  0.06116412  0.01649641    -0.07500
C1204       C  0.97671224  0.07790743  0.02667313     0.04500
C1205       C  0.96162040  0.07856265  0.02706513    -0.14800
C1206       C  0.95399417  0.06175599  0.01798854    -0.08100
C1207       C  0.98403539  0.02715506  0.99609947     0.05400
C1208       C  0.98078702  0.02154272  0.97285261    -0.09200
C1209       C  0.98760842  0.00495377  0.96205315     0.00400
C1210       C  0.99835339  0.99407230  0.97420708     0.00300
C1211       C  0.00198319  0.00005167  0.99713504    -0.12800
C1212       C  0.99477016  0.01617679  0.00828017     0.00700
C1213       C  0.98352414  0.99961206  0.93834412     0.40000
C1214       C  0.99807898  0.02045648  0.03258173     0.36700
C1215       C  0.95255502  0.02798858  0.99953359     0.36400
C1216       C  0.98532998  0.09365095  0.03749288     0.37100
N1217       N  0.98019532  0.99526836  0.91938779    -0.43600
N1218       N  0.00068111  0.02384304  0.05208961    -0.44100
N1219       N  0.99231222  0.10615044  0.04625243    -0.41500
N1220       N  0.94575889  0.01449145  0.99250792    -0.42900
H1221       H  0.94243994  0.06188562  0.01819963     0.13300
H1222       H  0.99530519  0.06107731  0.01585525     0.09800
H1223       H  0.97278244  0.03007640  0.96313609     0.10800
H1224       H  0.01009958  0.99158716  0.00668072     0.16600
C1225       C  0.72381583  0.13458962  0.97442487    -0.01600
C1226       C  0.72221120  0.13090365  0.99870773     0.07000
C1227       C  0.70842160  0.12841682  0.00775433    -0.07500
C1228       C  0.69635591  0.12937006  0.99314007     0.04500
C1229       C  0.69790596  0.13337262  0.96880856    -0.14800
C1230       C  0.71175502  0.13582081  0.95980552    -0.08100
C1231       C  0.73476294  0.12926118  0.01486035     0.05400
C1232       C  0.74369202  0.14631014  0.01817859    -0.09200
C1233       C  0.75554546  0.14538876  0.03333355     0.00400
C1234       C  0.75893917  0.12688515  0.04505320     0.00300
C1235       C  0.74978926  0.10997664  0.04201673    -0.12800
C1236       C  0.73775491  0.11107849  0.02736341     0.00700
C1237       C  0.76338110  0.16403880  0.03772321     0.40000
C1238       C  0.72868337  0.09327000  0.02535124     0.36700
C1239       C  0.73775078  0.13656625  0.96397118     0.36400
C1240       C  0.68266850  0.12504048  0.00353428     0.37100
N1241       N  0.76950251  0.17911027  0.04140432    -0.43600
N1242       N  0.72131866  0.07908544  0.02393747    -0.44100
N1243       N  0.67174494  0.12146196  0.01200336    -0.41500
N1244       N  0.74891137  0.13811377  0.95554441    -0.42900
H1245       H  0.71320695  0.13881251  0.94119901     0.13300
H1246       H  0.70708797  0.12543836  0.02641924     0.09800
H1247       H  0.74118985  0.16056950  0.00925462     0.10800
H1248       H  0.75208742  0.09568004  0.05097139     0.16600
C1249       C  0.73661651  0.96200622  0.50547755    -0.01600
C1250       C  0.72326198  0.95659526  0.49574448     0.07000
C1251       C  0.72272949  0.94887270  0.47275963    -0.07500
C1252       C  0.73515082  0.94709750  0.45923646     0.04500
C1253       C  0.74846334  0.95339930  0.46858937    -0.14800
C1254       C  0.74903963  0.96032836  0.49194718    -0.08100
C1255       C  0.70974163  0.95956928  0.50903618     0.05400
C1256       C  0.70555765  0.97954157  0.51498315    -0.09200
C1257       C  0.69317479  0.98311838  0.52807186     0.00400
C1258       C  0.68474683  0.96645642  0.53574743     0.00300
C1259       C  0.68862736  0.94651911  0.52898921    -0.12800
C1260       C  0.70099739  0.94297276  0.51574889     0.00700
C1261       C  0.68904081  0.00408360  0.53243560     0.40000
C1262       C  0.70473796  0.92215054  0.50986558     0.36700
C1263       C  0.73781740  0.96921798  0.52938401     0.36400
C1264       C  0.73396842  0.93802691  0.43618001     0.37100
N1265       N  0.68570036  0.02090796  0.53573198    -0.43600
N1266       N  0.70772831  0.90546648  0.50507711    -0.44100
N1267       N  0.73299255  0.93062228  0.41776726    -0.41500
N1268       N  0.73873776  0.97497026  0.54856166    -0.42900
H1269       H  0.75917935  0.96498233  0.49949115     0.13300
H1270       H  0.71253041  0.94439595  0.46527401     0.09800
H1271       H  0.71199799  0.99241675  0.50927233     0.10800
H1272       H  0.68219477  0.93361749  0.53461727     0.16600
C1273       C  0.79898566  0.02444483  0.28229125    -0.01600
C1274       C  0.80540338  0.01625764  0.26202196     0.07000
C1275       C  0.81124484  0.99649831  0.26281074    -0.07500
C1276       C  0.81082055  0.98488089  0.28351264     0.04500
C1277       C  0.80425808  0.99298925  0.30383885    -0.14800
C1278       C  0.79831838  0.01273751  0.30286202    -0.08100
C1279       C  0.80636194  0.02828679  0.23998201     0.05400
C1280       C  0.81581260  0.04488189  0.23904163    -0.09200
C1281       C  0.81698270  0.05680495  0.21870758     0.00400
C1282       C  0.80867782  0.05199598  0.19862404     0.00300
C1283       C  0.79901198  0.03556168  0.19979273    -0.12800
C1284       C  0.79782790  0.02369984  0.22023236     0.00700
C1285       C  0.82623049  0.07448551  0.21948387     0.40000
C1286       C  0.78759618  0.00717371  0.22077232     0.36700
C1287       C  0.79300629  0.04482833  0.28232814     0.36400
C1288       C  0.81682931  0.96451885  0.28312143     0.37100
N1289       N  0.83360790  0.08869578  0.22018309    -0.43600
N1290       N  0.77937192  0.99395711  0.22127822    -0.44100
N1291       N  0.82169132  0.94822362  0.28274545    -0.41500
N1292       N  0.78828135  0.06120645  0.28231205    -0.42900
H1293       H  0.79338463  0.01923409  0.31836166     0.13300
H1294       H  0.81621824  0.99020735  0.24722766     0.09800
H1295       H  0.82220091  0.04863834  0.25438452     0.10800
H1296       H  0.79247601  0.03182899  0.18462284     0.16600
C1297       C  0.96759801  0.02523811  0.49519643    -0.01600
C1298       C  0.96146739  0.04038582  0.50954394     0.07000
C1299       C  0.94791359  0.03720486  0.51909272    -0.07500
C1300       C  0.94043855  0.01900142  0.51469290     0.04500
C1301       C  0.94651012  0.00374629  0.50010511    -0.14800
C1302       C  0.96011391  0.00716387  0.49053904    -0.08100
C1303       C  0.96927748  0.05945145  0.51512992     0.05400
C1304       C  0.96607601  0.07730364  0.50254520    -0.09200
C1305       C  0.97401461  0.09523291  0.50602883     0.00400
C1306       C  0.98524515  0.09548831  0.52269109     0.00300
C1307       C  0.98829486  0.07755159  0.53543932    -0.12800
C1308       C  0.98042357  0.05961183  0.53176038     0.00700
C1309       C  0.97103143  0.11260460  0.49111424     0.40000
C1310       C  0.98401934  0.04142631  0.54497384     0.36700
C1311       C  0.98156852  0.02799199  0.48507188     0.36400
C1312       C  0.92693720  0.01611991  0.52633386     0.37100
N1313       N  0.96868935  0.12647431  0.47903874    -0.43600
N1314       N  0.98683640  0.02674767  0.55540567    -0.44100
N1315       N  0.91612665  0.01388305  0.53574169    -0.41500
N1316       N  0.99278782  0.03026612  0.47708388    -0.42900
H1317       H  0.96491023  0.99580057  0.47916050     0.13300
H1318       H  0.94330224  0.04881843  0.53037797     0.09800
H1319       H  0.95765022  0.07701127  0.48944209     0.10800
H1320       H  0.99684619  0.07752769  0.54830611     0.16600
C1321       C  0.21101091  0.13059374  0.50563895    -0.01600
C1322       C  0.20955006  0.13421980  0.48138020     0.07000
C1323       C  0.19589875  0.13674508  0.47167153    -0.07500
C1324       C  0.18370763  0.13559677  0.48584239     0.04500
C1325       C  0.18515561  0.13208649  0.51026561    -0.14800
C1326       C  0.19889131  0.12968122  0.51985016    -0.08100
C1327       C  0.22213412  0.13382194  0.46572957     0.05400
C1328       C  0.22593632  0.11522325  0.45524781    -0.09200
C1329       C  0.23819176  0.11369121  0.44140101     0.00400
C1330       C  0.24689754  0.13111164  0.43773553     0.00300
C1331       C  0.24308015  0.14974803  0.44844220    -0.12800
C1332       C  0.23075432  0.15122833  0.46225507     0.00700
C1333       C  0.24190677  0.09378271  0.43223322     0.40000
C1334       C  0.22705959  0.17071346  0.47258665     0.36700
C1335       C  0.22483266  0.12702195  0.51613182     0.36400
C1336       C  0.16990347  0.13654056  0.47457627     0.37100
N1337       N  0.24484577  0.07777588  0.42496543    -0.43600
N1338       N  0.22401942  0.18631564  0.48083249    -0.44100
N1339       N  0.15886612  0.13712235  0.46542373    -0.41500
N1340       N  0.23592054  0.12401913  0.52443769    -0.42900
H1341       H  0.20017576  0.12688105  0.53851315     0.13300
H1342       H  0.19476647  0.13904601  0.45288901     0.09800
H1343       H  0.21942438  0.10175129  0.45828693     0.10800
H1344       H  0.24960823  0.16324423  0.44573423     0.16600
C1345       C  0.14562726  0.02337402  0.74764151    -0.01600
C1346       C  0.13933199  0.01690091  0.72630982     0.07000
C1347       C  0.13355028  0.99707058  0.72496645    -0.07500
C1348       C  0.13381663  0.98387514  0.74445695     0.04500
C1349       C  0.14016099  0.99034952  0.76578306    -0.14800
C1350       C  0.14612788  0.01007114  0.76697100    -0.08100
C1351       C  0.13882871  0.03057155  0.70526744     0.05400
C1352       C  0.15164686  0.03758631  0.69548000    -0.09200
C1353       C  0.15170749  0.05108936  0.67628628     0.00400
C1354       C  0.13865157  0.05802086  0.66645121     0.00300
C1355       C  0.12583393  0.05061046  0.67608314    -0.12800
C1356       C  0.12582193  0.03694350  0.69510005     0.00700
C1357       C  0.16538498  0.05792600  0.66780177     0.40000
C1358       C  0.11229358  0.02993362  0.70408157     0.36700
C1359       C  0.15115053  0.04389126  0.75042918     0.36400
C1360       C  0.12797017  0.96354452  0.74178293     0.37100
N1361       N  0.17645347  0.06314459  0.66113895    -0.43600
N1362       N  0.10144891  0.02419057  0.71114712    -0.44100
N1363       N  0.12328283  0.94725456  0.73950921    -0.41500
N1364       N  0.15552679  0.06035880  0.75269212    -0.42900
H1365       H  0.15086943  0.01534269  0.78329832     0.13300
H1366       H  0.12886643  0.99185201  0.70857105     0.09800
H1367       H  0.16169580  0.03256622  0.70303390     0.10800
H1368       H  0.11570722  0.05537642  0.66864776     0.16600
C1369       C  0.99495746  0.79343095  0.43516739    -0.01600
C1370       C  0.98193131  0.79513970  0.42272424     0.07000
C1371       C  0.97826715  0.77989552  0.40642365    -0.07500
C1372       C  0.98700160  0.76274738  0.40308596     0.04500
C1373       C  0.99973880  0.76056301  0.41626106    -0.14800
C1374       C  0.00374825  0.77628332  0.43177892    -0.08100
C1375       C  0.97206041  0.81277298  0.42624978     0.05400
C1376       C  0.97688832  0.83263506  0.42130826    -0.09200
C1377       C  0.96810596  0.84969346  0.42488733     0.00400
C1378       C  0.95409501  0.84707051  0.43351628     0.00300
C1379       C  0.94906223  0.82712662  0.43761739    -0.12800
C1380       C  0.95792172  0.81004963  0.43421712     0.00700
C1381       C  0.97362785  0.86964745  0.41883012     0.40000
C1382       C  0.95246378  0.78997425  0.43993112     0.36700
C1383       C  0.99923163  0.80863022  0.45223396     0.36400
C1384       C  0.98280169  0.74790335  0.38555837     0.37100
N1385       N  0.97807526  0.88562172  0.41393329    -0.43600
N1386       N  0.94810594  0.77387694  0.44451488    -0.44100
N1387       N  0.97943574  0.73604372  0.37146966    -0.41500
N1388       N  0.00264692  0.82084480  0.46588334    -0.42900
H1389       H  0.01348073  0.77478314  0.44200279     0.13300
H1390       H  0.96849664  0.78139748  0.39628662     0.09800
H1391       H  0.98760289  0.83481064  0.41460225     0.10800
H1392       H  0.93834582  0.82491501  0.44428335     0.16600
C1393       C  0.24970948  0.64545899  0.48153648    -0.01600
C1394       C  0.23558446  0.64621639  0.49000502     0.07000
C1395       C  0.23334236  0.64684436  0.51432422    -0.07500
C1396       C  0.24482326  0.64636543  0.53018242     0.04500
C1397       C  0.25901571  0.64510680  0.52181271    -0.14800
C1398       C  0.26124949  0.64505944  0.49737990    -0.08100
C1399       C  0.22299540  0.64572109  0.47385995     0.05400
C1400       C  0.22049657  0.62811777  0.46031353    -0.09200
C1401       C  0.20863420  0.62673124  0.44529186     0.00400
C1402       C  0.19906094  0.64343554  0.44318243     0.00300
C1403       C  0.20146814  0.66092233  0.45711062    -0.12800
C1404       C  0.21322062  0.66212444  0.47242575     0.00700
C1405       C  0.20615793  0.60748654  0.43345686     0.40000
C1406       C  0.21511157  0.68043238  0.48633133     0.36700
C1407       C  0.25258011  0.64514079  0.45663759     0.36400
C1408       C  0.24164032  0.64777319  0.55491571     0.37100
N1409       N  0.20417690  0.59197451  0.42413756    -0.43600
N1410       N  0.21658864  0.69504747  0.49759829    -0.44100
N1411       N  0.23901701  0.64888232  0.57472454    -0.41500
N1412       N  0.25479336  0.64484710  0.43665396    -0.42900
H1413       H  0.27202367  0.64416620  0.49059803     0.13300
H1414       H  0.22251975  0.64751354  0.52096722     0.09800
H1415       H  0.22772021  0.61519403  0.46187598     0.10800
H1416       H  0.19422120  0.67383076  0.45588601     0.16600
C1417       C  0.13596007  0.56196465  0.25402700    -0.01600
C1418       C  0.14681377  0.56415205  0.23707540     0.07000
C1419       C  0.15802117  0.57793525  0.24151337    -0.07500
C1420       C  0.15854177  0.58939666  0.26239748     0.04500
C1421       C  0.14770877  0.58710557  0.27940402    -0.14800
C1422       C  0.13647502  0.57340229  0.27485786    -0.08100
C1423       C  0.14636317  0.55265517  0.21438697     0.05400
C1424       C  0.13486830  0.55582248  0.19895396    -0.09200
C1425       C  0.13370797  0.54486394  0.17783546     0.00400
C1426       C  0.14420708  0.53019853  0.17175111     0.00300
C1427       C  0.15594704  0.52752976  0.18690331    -0.12800
C1428       C  0.15709742  0.53856839  0.20801058     0.00700
C1429       C  0.12189356  0.54965090  0.16245095     0.40000
C1430       C  0.16917100  0.53470088  0.22317881     0.36700
C1431       C  0.12428330  0.54782509  0.25063031     0.36400
C1432       C  0.16980787  0.60427853  0.26523015     0.37100
N1433       N  0.11240619  0.55360810  0.15019919    -0.43600
N1434       N  0.17887525  0.53163975  0.23530069    -0.44100
N1435       N  0.17879032  0.61630706  0.26739079    -0.41500
N1436       N  0.11490360  0.53653118  0.24790536    -0.42900
H1437       H  0.12809556  0.57147320  0.28775778     0.13300
H1438       H  0.16624481  0.58004138  0.22838145     0.09800
H1439       H  0.12675381  0.56699523  0.20344266     0.10800
H1440       H  0.16410037  0.51638560  0.18257361     0.16600
C1441       C  0.96294679  0.32707420  0.57082573    -0.01600
C1442       C  0.97122722  0.31793120  0.55294787     0.07000
C1443       C  0.97103559  0.32674728  0.53043232    -0.07500
C1444       C  0.96308231  0.34445487  0.52565338     0.04500
C1445       C  0.95472808  0.35351522  0.54348788    -0.14800
C1446       C  0.95467108  0.34450679  0.56588977    -0.08100
C1447       C  0.97966176  0.29873207  0.55680476     0.05400
C1448       C  0.97276203  0.28112056  0.56525385    -0.09200
C1449       C  0.97990070  0.26227240  0.56668981     0.00400
C1450       C  0.99409608  0.26050396  0.55856673     0.00300
C1451       C  0.00125965  0.27835825  0.55148127    -0.12800
C1452       C  0.99424891  0.29734593  0.55076680     0.00700
C1453       C  0.97255880  0.24525549  0.57743820     0.40000
C1454       C  0.00229873  0.31521557  0.54390849     0.36700
C1455       C  0.96318019  0.31938025  0.59459057     0.36400
C1456       C  0.96336179  0.35254618  0.50205210     0.37100
N1457       N  0.96669898  0.23172910  0.58633260    -0.43600
N1458       N  0.00878272  0.32953417  0.53849366    -0.44100
N1459       N  0.96367405  0.35897368  0.48311371    -0.41500
N1460       N  0.96337370  0.31328186  0.61367588    -0.42900
H1461       H  0.94845609  0.35147533  0.57980359     0.13300
H1462       H  0.97706742  0.31963246  0.51639177     0.09800
H1463       H  0.96164785  0.28198387  0.57037578     0.10800
H1464       H  0.01226234  0.27742777  0.54578123     0.16600
C1465       C  0.97622225  0.58401366  0.46697439    -0.01600
C1466       C  0.97972465  0.56376918  0.46067863     0.07000
C1467       C  0.99162521  0.56017167  0.44644114    -0.07500
C1468       C  0.00010740  0.57640821  0.43853602     0.04500
C1469       C  0.99669407  0.59677556  0.44494045    -0.14800
C1470       C  0.98466544  0.60028554  0.45907829    -0.08100
C1471       C  0.97114466  0.54610153  0.46886742     0.05400
C1472       C  0.95710056  0.54381133  0.46071864    -0.09200
C1473       C  0.94869882  0.52725266  0.46798702     0.00400
C1474       C  0.95436472  0.51268297  0.48387306     0.00300
C1475       C  0.96847935  0.51499271  0.49183893    -0.12800
C1476       C  0.97686167  0.53149311  0.48448802     0.00700
C1477       C  0.93461504  0.52511300  0.45794105     0.40000
C1478       C  0.99121023  0.53335811  0.49355415     0.36700
C1479       C  0.96423414  0.58837051  0.48202591     0.36400
C1480       C  0.01184536  0.57164770  0.42314518     0.37100
N1481       N  0.92334148  0.52339712  0.44981772    -0.43600
N1482       N  0.00271882  0.53486981  0.50076859    -0.44100
N1483       N  0.02123504  0.56767920  0.41081826    -0.41500
N1484       N  0.95461870  0.59177245  0.49409786    -0.42900
H1485       H  0.98196398  0.61574975  0.46433213     0.13300
H1486       H  0.99422163  0.54460950  0.44137491     0.09800
H1487       H  0.95276763  0.55488481  0.44839530     0.10800
H1488       H  0.97295024  0.50400779  0.50410989     0.16600
C1489       C  0.71628413  0.45958656  0.43831058    -0.01600
C1490       C  0.71651736  0.46650253  0.46182536     0.07000
C1491       C  0.70368884  0.47304092  0.47211388    -0.07500
C1492       C  0.69078485  0.47245970  0.45960947     0.04500
C1493       C  0.69060482  0.46578342  0.43601787    -0.14800
C1494       C  0.70345531  0.45955136  0.42560275    -0.08100
C1495       C  0.72998378  0.46730884  0.47590966     0.05400
C1496       C  0.74177479  0.47826559  0.46725370    -0.09200
C1497       C  0.75445698  0.47981300  0.48030074     0.00400
C1498       C  0.75536145  0.47077200  0.50274992     0.00300
C1499       C  0.74360376  0.45988078  0.51144068    -0.12800
C1500       C  0.73108671  0.45781711  0.49815578     0.00700
C1501       C  0.76613437  0.49153368  0.47075753     0.40000
C1502       C  0.71967453  0.44543754  0.50752038     0.36700
C1503       C  0.72894653  0.45179857  0.42704350     0.36400
C1504       C  0.67802995  0.47953972  0.47117290     0.37100
N1505       N  0.77550380  0.50092389  0.46311798    -0.43600
N1506       N  0.71053319  0.43550648  0.51501322    -0.44100
N1507       N  0.66781878  0.48516602  0.48053126    -0.41500
N1508       N  0.73908656  0.44552756  0.41801802    -0.42900
H1509       H  0.70343258  0.45423070  0.40754568     0.13300
H1510       H  0.70376979  0.47876139  0.49000625     0.09800
H1511       H  0.74100006  0.48589769  0.45037947     0.10800
H1512       H  0.74427424  0.45271391  0.52860176     0.16600
C1513       C  0.79080690  0.53698101  0.69730342    -0.01600
C1514       C  0.79825879  0.53067026  0.71752791     0.07000
C1515       C  0.80628113  0.51261144  0.71699310    -0.07500
C1516       C  0.80728373  0.50098064  0.69642160     0.04500
C1517       C  0.80014573  0.50751198  0.67575281    -0.14800
C1518       C  0.79180818  0.52544772  0.67665752    -0.08100
C1519       C  0.79835321  0.54306603  0.73923905     0.05400
C1520       C  0.79056511  0.53631144  0.75870667    -0.09200
C1521       C  0.79103082  0.54712056  0.77995052     0.00400
C1522       C  0.79959303  0.56488736  0.78190635     0.00300
C1523       C  0.80736805  0.57156023  0.76230573    -0.12800
C1524       C  0.80672793  0.56090809  0.74103462     0.00700
C1525       C  0.78314830  0.53908852  0.79964013     0.40000
C1526       C  0.81490732  0.56835850  0.72136101     0.36700
C1527       C  0.78209104  0.55522385  0.69740285     0.36400
C1528       C  0.81543155  0.48224842  0.69747038     0.37100
N1529       N  0.77679672  0.53258882  0.81535869    -0.43600
N1530       N  0.82140048  0.57433375  0.70553120    -0.44100
N1531       N  0.82203669  0.46729777  0.69857381    -0.41500
N1532       N  0.77509387  0.56982814  0.69755062    -0.42900
H1533       H  0.78625507  0.53079009  0.66108939     0.13300
H1534       H  0.81191778  0.50771514  0.73270902     0.09800
H1535       H  0.78422739  0.52244948  0.75732787     0.10800
H1536       H  0.81388918  0.58525081  0.76353943     0.16600
loop_ 
_geom_bond_atom_site_label_1 
_geom_bond_atom_site_label_2 
_geom_bond_distance 
_geom_bond_site_symmetry_2 
_ccdc_geom_bond_type 
N1            N2   1.319       .  A
N1            C5   1.343       .  A
N1           Cu9   2.061       .  S
N2            C3   1.344       .  A
N2           Cu8   2.072       .  S
C3            C4   1.389       .  A
C3            H6   1.080       .  S
C4            C5   1.387       .  A
C4         C1517   1.487       .  S
C5            H7   1.081       .  S
Cu8          N11   2.072       .  S
Cu9          N19   2.061       .  S
Cu10         N12   2.096       .  S
Cu10         N18   2.095       .  S
N11          N12   1.324       .  A
N11          C15   1.346       .  A
N12          C13   1.348       .  A
C13          C14   1.386       .  A
C13          H16   1.082       .  S
C14          C15   1.381       .  A
C14          C38   1.472       .  S
C15          H17   1.082       .  S
N18          N19   1.323       .  A
N18          C22   1.349       .  A
N19          C20   1.342       .  A
C20          C21   1.380       .  A
C20          H23   1.082       .  S
C21          C22   1.388       .  A
C21        C1498   1.481       .  S
C22          H24   1.082       .  S
N25          N26   1.320       .  A
N25          C29   1.343       .  A
N25         Cu33   2.064       .  S
N26          C27   1.345       .  A
N26         Cu32   2.069       .  S
C27          C28   1.386       .  A
C27          H30   1.081       .  S
C28          C29   1.384       .  A
C28        C1474   1.482       .  S
C29          H31   1.078       .  S
Cu32         N35   2.070       .  S
Cu33         N43   2.065       .  S
Cu34         N36   2.104       .  S
Cu34         N42   2.104       .  S
N35          N36   1.324       .  A
N35          C39   1.345       .  A
N36          C37   1.350       .  A
C37          C38   1.387       .  A
C37          H40   1.081       .  S
C38          C39   1.379       .  A
C39          H41   1.082       .  S
N42          N43   1.323       .  A
N42          C46   1.350       .  A
N43          C44   1.344       .  A
C44          C45   1.382       .  A
C44          H47   1.081       .  S
C45          C46   1.390       .  A
C45        C1445   1.488       .  S
C46          H48   1.082       .  S
N49          N50   1.321       .  A
N49          C53   1.349       .  A
N49         Cu57   2.086       .  S
N50          C51   1.344       .  A
N50         Cu56   2.070       .  S
C51          C52   1.385       .  A
C51          H54   1.081       .  S
C52          C53   1.389       .  A
C52        C1421   1.488       .  S
C53          H55   1.081       .  S
Cu56         N59   2.070       .  S
Cu57         N67   2.087       .  S
Cu58         N60   2.091       .  S
Cu58         N66   2.093       .  S
N59          N60   1.323       .  A
N59          C63   1.342       .  A
N60          C61   1.351       .  A
C61          C62   1.386       .  A
C61          H64   1.082       .  S
C62          C63   1.380       .  A
C62          C86   1.469       .  S
C63          H65   1.082       .  S
N66          N67   1.324       .  A
N66          C70   1.348       .  A
N67          C68   1.345       .  A
C68          C69   1.387       .  A
C68          H71   1.081       .  S
C69          C70   1.389       .  A
C69        C1402   1.494       .  S
C70          H72   1.082       .  S
N73          N74   1.318       .  A
N73          C77   1.343       .  A
N73         Cu81   2.062       .  S
N74          C75   1.344       .  A
N74         Cu80   2.066       .  S
C75          C76   1.388       .  A
C75          H78   1.081       .  S
C76          C77   1.386       .  A
C76        C1469   1.485   1_455  S
C77          H79   1.081   1_455  S
Cu80         N83   2.068       .  S
Cu81         N91   2.063       .  S
Cu82         N84   2.099       .  S
Cu82         N90   2.099       .  S
N83          N84   1.324       .  A
N83          C87   1.342       .  A
N84          C85   1.352       .  A
C85          C86   1.387       .  A
C85          H88   1.082       .  S
C86          C87   1.377       .  A
C87          H89   1.082       .  S
N90          N91   1.323       .  A
N90          C94   1.351       .  A
N91          C92   1.340       .  A
C92          C93   1.380       .  A
C92          H95   1.082   1_455  S
C93          C94   1.391       .  A
C93        C1373   1.485   1_455  S
C94          H96   1.082       .  S
N97          N98   1.319       .  A
N97         C101   1.347       .  A
N97        Cu105   2.078       .  S
N98          C99   1.345       .  A
N98        Cu104   2.076       .  S
C99         C100   1.390       .  A
C99         H102   1.082       .  S
C100        C101   1.391       .  A
C100       C1354   1.497       .  S
C101        H103   1.080       .  S
Cu104       N107   2.076       .  S
Cu105       N115   2.079       .  S
Cu106       N108   2.079       .  S
Cu106       N114   2.080       .  S
N107        N108   1.323       .  A
N107        C111   1.343       .  A
N108        C109   1.348       .  A
C109        C110   1.383       .  A
C109        H112   1.082       .  S
C110        C111   1.381       .  A
C110        C134   1.466       .  S
C111        H113   1.082       .  S
N114        N115   1.323       .  A
N114        C118   1.347       .  A
N115        C116   1.343       .  A
C116        C117   1.384       .  A
C116        H119   1.082       .  S
C117        C118   1.387       .  A
C117       C1325   1.485       .  S
C118        H120   1.082       .  S
N121        N122   1.320       .  A
N121        C125   1.345   1_455  A
N121       Cu129   2.074       .  S
N122        C123   1.343       .  A
N122       Cu128   2.059       .  S
C123        C124   1.384   1_455  A
C123        H126   1.082       .  S
C124        C125   1.387       .  A
C124       C1306   1.482       .  S
C125        H127   1.081       .  S
Cu128       N131   2.060       .  S
Cu129       N139   2.075       .  S
Cu130       N132   2.092       .  S
Cu130       N138   2.093       .  S
N131        N132   1.323       .  A
N131        C135   1.341       .  A
N132        C133   1.350       .  A
C133        C134   1.385       .  A
C133        H136   1.082       .  S
C134        C135   1.377       .  A
C135        H137   1.082       .  S
N138        N139   1.323       .  A
N138        C142   1.349       .  A
N139        C140   1.344   1_455  A
C140        C141   1.385   1_655  A
C140        H143   1.082       .  S
C141        C142   1.390       .  A
C141       C1450   1.491   1_455  S
C142        H144   1.082       .  S
N145        N146   1.321       .  A
N145        C149   1.346       .  A
N145       Cu153   2.079       .  S
N146        C147   1.344       .  A
N146       Cu152   2.066       .  S
C147        C148   1.385       .  A
C147        H150   1.081       .  S
C148        C149   1.387       .  A
C148       C1277   1.484       .  S
C149        H151   1.082       .  S
Cu152       N155   2.066       .  S
Cu153       N163   2.079       .  S
Cu154       N156   2.092       .  S
Cu154       N162   2.092       .  S
N155        N156   1.323       .  A
N155        C159   1.344       .  A
N156        C157   1.348       .  A
C157        C158   1.385       .  A
C157        H160   1.082       .  S
C158        C159   1.379       .  A
C158        C182   1.468       .  S
C159        H161   1.082       .  S
N162        N163   1.323       .  A
N162        C166   1.349       .  A
N163        C164   1.345       .  A
C164        C165   1.385       .  A
C164        H167   1.082       .  S
C165        C166   1.389       .  A
C165       C1253   1.490       .  S
C166        H168   1.082       .  S
N169        N170   1.319       .  A
N169        C173   1.343       .  A
N169       Cu177   2.065       .  S
N170        C171   1.343       .  A
N170       Cu176   2.064       .  S
C171        C172   1.386       .  A
C171        H174   1.081       .  S
C172        C173   1.387       .  A
C172       C1301   1.485   1_565  S
C173        H175   1.081       .  S
Cu176       N179   2.064       .  S
Cu177       N187   2.066       .  S
Cu178       N180   2.095       .  S
Cu178       N186   2.095       .  S
N179        N180   1.323       .  A
N179        C183   1.345       .  A
N180        C181   1.348       .  A
C181        C182   1.385       .  A
C181        H184   1.081       .  S
C182        C183   1.379       .  A
C183        H185   1.082       .  S
N186        N187   1.323       .  A
N186        C190   1.350       .  A
N187        C188   1.342       .  A
C188        C189   1.382       .  A
C188        H191   1.081       .  S
C189        C190   1.389       .  A
C189       C1378   1.486       .  S
C190        H192   1.082       .  S
N193        N194   1.320       .  A
N193        C197   1.347       .  A
N193       Cu201   2.076       .  S
N194        C195   1.343       .  A
N194       Cu200   2.067       .  S
C195        C196   1.385       .  A
C195        H198   1.081       .  S
C196        C197   1.387       .  A
C196       C1282   1.485       .  S
C197        H199   1.081       .  S
Cu200       N203   2.068       .  S
Cu201       N211   2.077       .  S
Cu202       N204   2.105       .  S
Cu202       N210   2.106       .  S
N203        N204   1.323       .  A
N203        C207   1.343       .  A
N204        C205   1.353       .  A
C205        C206   1.389       .  A
C205        H208   1.082       .  S
C206        C207   1.380       .  A
C206        C230   1.476       .  S
C207        H209   1.082       .  S
N210        N211   1.324       .  A
N210        C214   1.350       .  A
N211        C212   1.344       .  A
C212        C213   1.385       .  A
C212        H215   1.082       .  S
C213        C214   1.392       .  A
C213       C1234   1.495       .  S
C214        H216   1.082       .  S
N217        N218   1.319       .  A
N217        C221   1.345       .  A
N217       Cu225   2.074       .  S
N218        C219   1.346       .  A
N218       Cu224   2.074       .  S
C219        C220   1.389       .  A
C219        H222   1.083       .  S
C220        C221   1.389       .  A
C220       C1205   1.492       .  S
C221        H223   1.081       .  S
Cu224       N227   2.074       .  S
Cu225       N235   2.075       .  S
Cu226       N228   2.110       .  S
Cu226       N234   2.110       .  S
N227        N228   1.325       .  A
N227        C231   1.342       .  A
N228        C229   1.354       .  A
C229        C230   1.389       .  A
C229        H232   1.082       .  S
C230        C231   1.379       .  A
C231        H233   1.082       .  S
N234        N235   1.324       .  A
N234        C238   1.353       .  A
N235        C236   1.343       .  A
C236        C237   1.384       .  A
C236        H239   1.081       .  S
C237        C238   1.393       .  A
C237       C1181   1.495       .  S
C238        H240   1.082       .  S
N241        N242   1.322       .  A
N241        C245   1.347       .  A
N241       Cu249   2.089       .  S
N242        C243   1.348       .  A
N242       Cu248   2.084       .  S
C243        C244   1.387       .  A
C243        H246   1.081       .  S
C244        C245   1.387       .  A
C244       C1349   1.489       .  S
C245        H247   1.082       .  S
Cu248       N251   2.084       .  S
Cu249       N259   2.089       .  S
Cu250       N252   2.105       .  S
Cu250       N258   2.105       .  S
N251        N252   1.324       .  A
N251        C255   1.348       .  A
N252        C253   1.350       .  A
C253        C254   1.387       .  A
C253        H256   1.082       .  S
C254        C255   1.383       .  A
C254        C278   1.478       .  S
C255        H257   1.082       .  S
N258        N259   1.324       .  A
N258        C262   1.351       .  A
N259        C260   1.349       .  A
C260        C261   1.385       .  A
C260        H263   1.082       .  S
C261        C262   1.388       .  A
C261       C1157   1.491       .  S
C262        H264   1.082       .  S
N265        N266   1.321       .  A
N265        C269   1.343   1_455  A
N265       Cu273   2.062       .  S
N266        C267   1.349       .  A
N266       Cu272   2.089       .  S
C267        C268   1.387       .  A
C267        H270   1.082       .  S
C268        C269   1.382   1_455  A
C268       C1210   1.482   1_455  S
C269        H271   1.081       .  S
Cu272       N275   2.089       .  S
Cu273       N283   2.062       .  S
Cu274       N276   2.099       .  S
Cu274       N282   2.098       .  S
N275        N276   1.325       .  A
N275        C279   1.347       .  A
N276        C277   1.351       .  A
C277        C278   1.387       .  A
C277        H280   1.081       .  S
C278        C279   1.382       .  A
C279        H281   1.081       .  S
N282        N283   1.322       .  A
N282        C286   1.349       .  A
N283        C284   1.342   1_455  A
C284        C285   1.383       .  A
C284        H287   1.081       .  S
C285        C286   1.391   1_655  A
C285       C1138   1.488       .  S
C286        H288   1.082       .  S
N289        N290   1.320       .  A
N289        C293   1.349       .  A
N289       Cu297   2.093       .  S
N290        C291   1.344       .  A
N290       Cu296   2.067       .  S
C291        C292   1.386       .  A
C291        H294   1.081       .  S
C292        C293   1.392       .  A
C292       C1426   1.493       .  S
C293        H295   1.081       .  S
Cu296       N299   2.067       .  S
Cu297       N307   2.095       .  S
Cu298       N300   2.092       .  S
Cu298       N306   2.094       .  S
N299        N300   1.322       .  A
N299        C303   1.341       .  A
N300        C301   1.352       .  A
C301        C302   1.388       .  A
C301        H304   1.082       .  S
C302        C303   1.380       .  A
C302        C326   1.473       .  S
C303        H305   1.082       .  S
N306        N307   1.325       .  A
N306        C310   1.349       .  A
N307        C308   1.348       .  A
C308        C309   1.387       .  A
C308        H311   1.075       .  S
C309        C310   1.386       .  A
C309       C1109   1.489       .  S
C310        H312   1.079       .  S
N313        N314   1.319       .  A
N313        C317   1.345   1_455  A
N313       Cu321   2.069       .  S
N314        C315   1.344       .  A
N314       Cu320   2.064       .  S
C315        C316   1.385   1_455  A
C315        H318   1.082       .  S
C316        C317   1.387       .  A
C316       C1085   1.483       .  S
C317        H319   1.081       .  S
Cu320       N323   2.064       .  S
Cu321       N331   2.071       .  S
Cu322       N324   2.106       .  S
Cu322       N330   2.107       .  S
N323        N324   1.324       .  A
N323        C327   1.340       .  A
N324        C325   1.354       .  A
C325        C326   1.389       .  A
C325        H328   1.082       .  S
C326        C327   1.377       .  A
C327        H329   1.082       .  S
N330        N331   1.324       .  A
N330        C334   1.351       .  A
N331        C332   1.343   1_455  A
C332        C333   1.383   1_655  A
C332        H335   1.081       .  S
C333        C334   1.393       .  A
C333       C1186   1.494   1_455  S
C334        H336   1.081       .  S
N337        N338   1.321       .  A
N337        C341   1.344       .  A
N337       Cu345   2.069       .  S
N338        C339   1.343       .  A
N338       Cu344   2.065       .  S
C339        C340   1.384       .  A
C339        H342   1.081       .  S
C340        C341   1.384       .  A
C340       C1522   1.479       .  S
C341        H343   1.081       .  S
Cu344       N347   2.065       .  S
Cu345       N355   2.071       .  S
Cu346       N348   2.089       .  S
Cu346       N354   2.090       .  S
N347        N348   1.323       .  A
N347        C351   1.343       .  A
N348        C349   1.349       .  A
C349        C350   1.384       .  A
C349        H352   1.082       .  S
C350        C351   1.379       .  A
C350        C374   1.466       .  S
C351        H353   1.082       .  S
N354        N355   1.322       .  A
N354        C358   1.347       .  A
N355        C356   1.344       .  A
C356        C357   1.386       .  A
C356        H359   1.082       .  S
C357        C358   1.391       .  A
C357       C1061   1.493       .  S
C358        H360   1.081       .  S
N361        N362   1.319       .  A
N361        C365   1.345       .  A
N361       Cu369   2.067       .  S
N362        C363   1.343       .  A
N362       Cu368   2.064       .  S
C363        C364   1.385       .  A
C363        H366   1.082       .  S
C364        C365   1.386       .  A
C364       C1090   1.483       .  S
C365        H367   1.081       .  S
Cu368       N371   2.065       .  S
Cu369       N379   2.068       .  S
Cu370       N372   2.092       .  S
Cu370       N378   2.092       .  S
N371        N372   1.324       .  A
N371        C375   1.342       .  A
N372        C373   1.350       .  A
C373        C374   1.385       .  A
C373        H376   1.082       .  S
C374        C375   1.377       .  A
C375        H377   1.082       .  S
N378        N379   1.324       .  A
N378        C382   1.350       .  A
N379        C380   1.340       .  A
C380        C381   1.380       .  A
C380        H383   1.082       .  S
C381        C382   1.388       .  A
C381       C1133   1.483       .  S
C382        H384   1.082       .  S
N385        N386   1.319       .  A
N385        C389   1.348       .  A
N385       Cu393   2.081       .  S
N386        C387   1.343       .  A
N386       Cu392   2.068       .  S
C387        C388   1.387       .  A
C387        H390   1.081       .  S
C388        C389   1.392       .  A
C388       C1037   1.493       .  S
C389        H391   1.080       .  S
Cu392       N395   2.069       .  S
Cu393       N403   2.082       .  S
Cu394       N396   2.095       .  S
Cu394       N402   2.096       .  S
N395        N396   1.323       .  A
N395        C399   1.341       .  A
N396        C397   1.352       .  A
C397        C398   1.388       .  A
C397        H400   1.082       .  S
C398        C399   1.379       .  A
C398        C422   1.473       .  S
C399        H401   1.082       .  S
N402        N403   1.325       .  A
N402        C406   1.349       .  A
N403        C404   1.345       .  A
C404        C405   1.385       .  A
C404        H407   1.082       .  S
C405        C406   1.389       .  A
C405       C1114   1.492       .  S
C406        H408   1.082       .  S
N409        N410   1.318       .  A
N409        C413   1.344       .  A
N409       Cu417   2.060       .  S
N410        C411   1.344       .  A
N410       Cu416   2.071       .  S
C411        C412   1.388       .  A
C411        H414   1.082       .  S
C412        C413   1.387       .  A
C412       C1013   1.486       .  S
C413        H415   1.081       .  S
Cu416       N419   2.072       .  S
Cu417       N427   2.060       .  S
Cu418       N420   2.101       .  S
Cu418       N426   2.101       .  S
N419        N420   1.324       .  A
N419        C423   1.341       .  A
N420        C421   1.353       .  A
C421        C422   1.388       .  A
C421        H424   1.082       .  S
C422        C423   1.378       .  A
C423        H425   1.082       .  S
N426        N427   1.324       .  A
N426        C430   1.351       .  A
N427        C428   1.340       .  A
C428        C429   1.377       .  A
C428        H431   1.082       .  S
C429        C430   1.389       .  A
C429        C989   1.479       .  S
C430        H432   1.082       .  S
N433        N434   1.320       .  A
N433        C437   1.345       .  A
N433       Cu441   2.071       .  S
N434        C435   1.346       .  A
N434       Cu440   2.072       .  S
C435        C436   1.387       .  A
C435        H438   1.081       .  S
C436        C437   1.386       .  A
C436        C970   1.486       .  S
C437        H439   1.082       .  S
Cu440       N443   2.073       .  S
Cu441       N451   2.072       .  S
Cu442       N444   2.099       .  S
Cu442       N450   2.100       .  S
N443        N444   1.324       .  A
N443        C447   1.344       .  A
N444        C445   1.351       .  A
C445        C446   1.387       .  A
C445        H448   1.082       .  S
C446        C447   1.379       .  A
C446        C470   1.471       .  S
C447        H449   1.082       .  S
N450        N451   1.323       .  A
N450        C454   1.349       .  A
N451        C452   1.344       .  A
C452        C453   1.385       .  A
C452        H455   1.081       .  S
C453        C454   1.391       .  A
C453       C1066   1.493       .  S
C454        H456   1.082       .  S
N457        N458   1.320   1_556  A
N457        C461   1.346       .  A
N457       Cu465   2.070       .  S
N458        C459   1.344   1_554  A
N458       Cu464   2.073       .  S
C459        C460   1.387       .  A
C459        H462   1.081   1_556  S
C460        C461   1.386       .  A
C460       C1018   1.486       .  S
C461        H463   1.081       .  S
Cu464       N467   2.073       .  S
Cu465       N475   2.071   1_556  S
Cu466       N468   2.092       .  S
Cu466       N474   2.092       .  S
N467        N468   1.324       .  A
N467        C471   1.344       .  A
N468        C469   1.350       .  A
C469        C470   1.385       .  A
C469        H472   1.082       .  S
C470        C471   1.379       .  A
C471        H473   1.082       .  S
N474        N475   1.323       .  A
N474        C478   1.348       .  A
N475        C476   1.343       .  A
C476        C477   1.383       .  A
C476        H479   1.080   1_554  S
C477        C478   1.389       .  A
C477        C941   1.487       .  S
C478        H480   1.081       .  S
N481        N482   1.323       .  A
N481        C485   1.349       .  A
N481       Cu489   2.088       .  S
N482        C483   1.345       .  A
N482       Cu488   2.083       .  S
C483        C484   1.387       .  A
C483        H486   1.081       .  S
C484        C485   1.389       .  A
C484        C917   1.492       .  S
C485        H487   1.081       .  S
Cu488       N491   2.082       .  S
Cu489       N499   2.089       .  S
Cu490       N492   2.079       .  S
Cu490       N498   2.080       .  S
N491        N492   1.322       .  A
N491        C495   1.348       .  A
N492        C493   1.346       .  A
C493        C494   1.382       .  A
C493        H496   1.082       .  S
C494        C495   1.383       .  A
C494        C518   1.471       .  S
C495        H497   1.082       .  S
N498        N499   1.321       .  A
N498        C502   1.346       .  A
N499        C500   1.348       .  A
C500        C501   1.390       .  A
C500        H503   1.076       .  S
C501        C502   1.388       .  A
C501       C1229   1.494       .  S
C502        H504   1.075       .  S
N505        N506   1.320       .  A
N505        C509   1.343   1_556  A
N505       Cu513   2.058       .  S
N506        C507   1.345   1_556  A
N506       Cu512   2.074       .  S
C507        C508   1.386       .  A
C507        H510   1.082       .  S
C508        C509   1.384       .  A
C508        C898   1.481       .  S
C509        H511   1.081       .  S
Cu512       N515   2.075       .  S
Cu513       N523   2.059       .  S
Cu514       N516   2.093       .  S
Cu514       N522   2.093       .  S
N515        N516   1.324       .  A
N515        C519   1.345       .  A
N516        C517   1.349       .  A
C517        C518   1.384       .  A
C517        H520   1.082       .  S
C518        C519   1.380       .  A
C519        H521   1.081       .  S
N522        N523   1.323       .  A
N522        C526   1.350       .  A
N523        C524   1.341       .  A
C524        C525   1.378       .  A
C524        H527   1.082       .  S
C525        C526   1.388       .  A
C525        C994   1.479       .  S
C526        H528   1.082       .  S
N529        N530   1.320   1_565  A
N529        C533   1.350   1_565  A
N529       Cu537   2.099       .  S
N530        C531   1.346       .  A
N530       Cu536   2.075   1_545  S
C531        C532   1.390       .  A
C531        H534   1.081       .  S
C532        C533   1.395       .  A
C532        C869   1.502       .  S
C533        H535   1.081       .  S
Cu536       N539   2.075       .  S
Cu537       N547   2.101       .  S
Cu538       N540   2.101       .  S
Cu538       N546   2.103       .  S
N539        N540   1.323       .  A
N539        C543   1.342       .  A
N540        C541   1.354       .  A
C541        C542   1.390       .  A
C541        H544   1.082       .  S
C542        C543   1.381       .  A
C542        C566   1.479       .  S
C543        H545   1.081       .  S
N546        N547   1.326       .  A
N546        C550   1.350       .  A
N547        C548   1.349       .  A
C548        C549   1.387       .  A
C548        H551   1.082       .  S
C549        C550   1.388       .  A
C549       C1162   1.493       .  S
C550        H552   1.082       .  S
N553        N554   1.318       .  A
N553        C557   1.344       .  A
N553       Cu561   2.058       .  S
N554        C555   1.344       .  A
N554       Cu560   2.073       .  S
C555        C556   1.388       .  A
C555        H558   1.082   1_565  S
C556        C557   1.387       .  A
C556        C893   1.486   1_565  S
C557        H559   1.081       .  S
Cu560       N563   2.074       .  S
Cu561       N571   2.059       .  S
Cu562       N564   2.102       .  S
Cu562       N570   2.103       .  S
N563        N564   1.324       .  A
N563        C567   1.341       .  A
N564        C565   1.354       .  A
C565        C566   1.390       .  A
C565        H568   1.082       .  S
C566        C567   1.381       .  A
C567        H569   1.082       .  S
N570        N571   1.323       .  A
N570        C574   1.351       .  A
N571        C572   1.339       .  A
C572        C573   1.382       .  A
C572        H575   1.081       .  S
C573        C574   1.394       .  A
C573        C946   1.491       .  S
C574        H576   1.081       .  S
N577        N578   1.318       .  A
N577        C581   1.348       .  A
N577       Cu585   2.083       .  S
N578        C579   1.343       .  A
N578       Cu584   2.061       .  S
C579        C580   1.388       .  A
C579        H582   1.081       .  S
C580        C581   1.394       .  A
C580       C1042   1.495       .  S
C581        H583   1.079       .  S
Cu584       N587   2.062       .  S
Cu585       N595   2.085       .  S
Cu586       N588   2.099       .  S
Cu586       N594   2.101       .  S
N587        N588   1.323       .  A
N587        C591   1.340       .  A
N588        C589   1.352       .  A
C589        C590   1.389       .  A
C589        H592   1.082       .  S
C590        C591   1.377       .  A
C590        C614   1.472       .  S
C591        H593   1.082       .  S
N594        N595   1.324       .  A
N594        C598   1.351       .  A
N595        C596   1.344       .  A
C596        C597   1.385       .  A
C596        H599   1.081       .  S
C597        C598   1.391       .  A
C597       C1397   1.495       .  S
C598        H600   1.082       .  S
N601        N602   1.319       .  A
N601        C605   1.343       .  A
N601       Cu609   2.070       .  S
N602        C603   1.345       .  A
N602       Cu608   2.068       .  S
C603        C604   1.389       .  A
C603        H606   1.082       .  S
C604        C605   1.388       .  A
C604        C845   1.491       .  S
C605        H607   1.080       .  S
Cu608       N611   2.069       .  S
Cu609       N619   2.071       .  S
Cu610       N612   2.093       .  S
Cu610       N618   2.093       .  S
N611        N612   1.324       .  A
N611        C615   1.341       .  A
N612        C613   1.351       .  A
C613        C614   1.386       .  A
C613        H616   1.082       .  S
C614        C615   1.379       .  A
C615        H617   1.082       .  S
N618        N619   1.322       .  A
N618        C622   1.349       .  A
N619        C620   1.344       .  A
C620        C621   1.384       .  A
C620        H623   1.082       .  S
C621        C622   1.390       .  A
C621        C821   1.489       .  S
C622        H624   1.082       .  S
N625        N626   1.320       .  A
N625        C629   1.343       .  A
N625       Cu633   2.062       .  S
N626        C627   1.347       .  A
N626       Cu632   2.091       .  S
C627        C628   1.393       .  A
C627        H630   1.081       .  S
C628        C629   1.387       .  A
C628        C965   1.495       .  S
C629        H631   1.080       .  S
Cu632       N635   2.092       .  S
Cu633       N643   2.062       .  S
Cu634       N636   2.087       .  S
Cu634       N642   2.086       .  S
N635        N636   1.325       .  A
N635        C639   1.349       .  A
N636        C637   1.346       .  A
C637        C638   1.382       .  A
C637        H640   1.082       .  S
C638        C639   1.384       .  A
C638        C662   1.473       .  S
C639        H641   1.082       .  S
N642        N643   1.321       .  A
N642        C646   1.348       .  A
N643        C644   1.342       .  A
C644        C645   1.382       .  A
C644        H647   1.082       .  S
C645        C646   1.389       .  A
C645       C1493   1.484       .  S
C646        H648   1.082       .  S
N649        N650   1.320       .  A
N649        C653   1.339       .  A
N649       Cu657   2.048       .  S
N650        C651   1.348       .  A
N650       Cu656   2.082       .  S
C651        C652   1.388       .  A
C651        H654   1.082       .  S
C652        C653   1.381       .  A
C652        C850   1.481       .  S
C653        H655   1.081       .  S
Cu656       N659   2.083       .  S
Cu657       N667   2.047       .  S
Cu658       N660   2.097       .  S
Cu658       N666   2.096       .  S
N659        N660   1.326       .  A
N659        C663   1.346       .  A
N660        C661   1.349       .  A
C661        C662   1.385       .  A
C661        H664   1.081       .  S
C662        C663   1.381       .  A
C663        H665   1.082       .  S
N666        N667   1.319       .  A
N666        C670   1.350       .  A
N667        C668   1.339       .  A
C668        C669   1.383       .  A
C668        H671   1.081       .  S
C669        C670   1.395       .  A
C669        C797   1.493       .  S
C670        H672   1.081       .  S
N673        N674   1.322       .  A
N673        C677   1.349       .  A
N673       Cu681   2.082       .  S
N674        C675   1.346       .  A
N674       Cu680   2.085       .  S
C675        C676   1.385       .  A
C675        H678   1.082       .  S
C676        C677   1.387       .  A
C676        C874   1.486       .  S
C677        H679   1.081       .  S
Cu680       N683   2.085       .  S
Cu681       N691   2.081       .  S
Cu682       N684   2.082       .  S
Cu682       N690   2.082       .  S
N683        N684   1.323       .  A
N683        C687   1.347       .  A
N684        C685   1.347       .  A
C685        C686   1.383       .  A
C685        H688   1.082       .  S
C686        C687   1.383       .  A
C686        C710   1.470       .  S
C687        H689   1.082       .  S
N690        N691   1.323       .  A
N690        C694   1.348       .  A
N691        C692   1.344       .  A
C692        C693   1.385       .  A
C692        H695   1.081       .  S
C693        C694   1.387       .  A
C693       C1330   1.487       .  S
C694        H696   1.082       .  S
N697        N698   1.320       .  A
N697        C701   1.344       .  A
N697       Cu705   2.065       .  S
N698        C699   1.344       .  A
N698       Cu704   2.075       .  S
C699        C700   1.389       .  A
C699        H702   1.080       .  S
C700        C701   1.388       .  A
C700        C773   1.490       .  S
C701        H703   1.081       .  S
Cu704       N707   2.076       .  S
Cu705       N715   2.066       .  S
Cu706       N708   2.091       .  S
Cu706       N714   2.090       .  S
N707        N708   1.324       .  A
N707        C711   1.345       .  A
N708        C709   1.349       .  A
C709        C710   1.384       .  A
C709        H712   1.081       .  S
C710        C711   1.380       .  A
C711        H713   1.082       .  S
N714        N715   1.323       .  A
N714        C718   1.349       .  A
N715        C716   1.343       .  A
C716        C717   1.381       .  A
C716        H719   1.081       .  S
C717        C718   1.388       .  A
C717        C802   1.484       .  S
C718        H720   1.082       .  S
N721        N722   1.321       .  A
N721        C725   1.346       .  A
N721       Cu729   2.077   1_545  S
N722        C723   1.347       .  A
N722       Cu728   2.082   1_545  S
C723        C724   1.389       .  A
C723        H726   1.081       .  S
C724        C725   1.387       .  A
C724        C922   1.490       .  S
C725        H727   1.081       .  S
Cu728       N731   2.082       .  S
Cu729       N739   2.077       .  S
Cu730       N732   2.095       .  S
Cu730       N738   2.095       .  S
N731        N732   1.324       .  A
N731        C735   1.344       .  A
N732        C733   1.352       .  A
C733        C734   1.387       .  A
C733        H736   1.082       .  S
C734        C735   1.383       .  A
C734        C758   1.478       .  S
C735        H737   1.082       .  S
N738        N739   1.324       .  A
N738        C742   1.350       .  A
N739        C740   1.344       .  A
C740        C741   1.384       .  A
C740        H743   1.082       .  S
C741        C742   1.388       .  A
C741       C1258   1.487       .  S
C742        H744   1.082       .  S
N745        N746   1.320       .  A
N745        C749   1.342       .  A
N745       Cu753   2.059       .  S
N746        C747   1.346       .  A
N746       Cu752   2.070       .  S
C747        C748   1.385       .  A
C747        H750   1.082   1_565  S
C748        C749   1.382       .  A
C748        C778   1.477   1_565  S
C749        H751   1.082       .  S
Cu752       N755   2.070       .  S
Cu753       N763   2.061       .  S
Cu754       N756   2.110       .  S
Cu754       N762   2.110       .  S
N755        N756   1.325       .  A
N755        C759   1.342       .  A
N756        C757   1.354       .  A
C757        C758   1.390       .  A
C757        H760   1.082       .  S
C758        C759   1.379       .  A
C759        H761   1.082       .  S
N762        N763   1.323       .  A
N762        C766   1.352       .  A
N763        C764   1.342       .  A
C764        C765   1.380       .  A
C764        H767   1.082       .  S
C765        C766   1.392       .  A
C765        C826   1.488       .  S
C766        H768   1.082       .  S
C769        C770   1.410       .  A
C769        C774   1.400       .  A
C769        C783   1.444       .  S
C770        C771   1.403       .  A
C770        C775   1.488       .  S
C771        C772   1.401       .  A
C771        H790   1.085       .  S
C772        C773   1.416       .  A
C772        C784   1.443       .  S
C773        C774   1.408       .  A
C774        H789   1.084       .  S
C775        C776   1.405       .  A
C775        C780   1.411       .  A
C776        C777   1.401       .  A
C776        H791   1.085       .  S
C777        C778   1.410       .  A
C777        C781   1.444       .  S
C778        C779   1.403       .  A
C779        C780   1.399       .  A
C779        H792   1.085   1_545  S
C780        C782   1.444       .  S
C781        N785   1.157       .  T
C782        N786   1.157       .  T
C783        N788   1.157       .  T
C784        N787   1.157       .  T
C793        C794   1.407       .  A
C793        C798   1.399       .  A
C793        C807   1.445       .  S
C794        C795   1.403       .  A
C794        C799   1.485       .  S
C795        C796   1.404       .  A
C795        H814   1.085       .  S
C796        C797   1.416       .  A
C796        C808   1.442       .  S
C797        C798   1.410       .  A
C798        H813   1.084       .  S
C799        C800   1.403       .  A
C799        C804   1.410       .  A
C800        C801   1.403       .  A
C800        H815   1.085       .  S
C801        C802   1.413       .  A
C801        C805   1.443       .  S
C802        C803   1.405       .  A
C803        C804   1.400       .  A
C803        H816   1.084       .  S
C804        C806   1.444       .  S
C805        N809   1.157       .  T
C806        N810   1.157       .  T
C807        N812   1.157       .  T
C808        N811   1.157       .  T
C817        C818   1.411       .  A
C817        C822   1.402       .  A
C817        C831   1.444       .  S
C818        C819   1.406       .  A
C818        C823   1.494       .  S
C819        C820   1.404       .  A
C819        H838   1.085       .  S
C820        C821   1.414       .  A
C820        C832   1.443       .  S
C821        C822   1.406       .  A
C822        H837   1.085       .  S
C823        C824   1.406       .  A
C823        C828   1.411       .  A
C824        C825   1.405       .  A
C824        H839   1.085       .  S
C825        C826   1.412       .  A
C825        C829   1.443       .  S
C826        C827   1.406       .  A
C827        C828   1.402       .  A
C827        H840   1.085       .  S
C828        C830   1.444       .  S
C829        N833   1.157       .  T
C830        N834   1.157       .  T
C831        N836   1.157       .  T
C832        N835   1.157       .  T
C841        C842   1.411       .  A
C841        C846   1.402       .  A
C841        C855   1.445       .  S
C842        C843   1.401       .  A
C842        C847   1.488       .  S
C843        C844   1.399       .  A
C843        H862   1.084       .  S
C844        C845   1.417       .  A
C844        C856   1.443       .  S
C845        C846   1.408       .  A
C846        H861   1.083       .  S
C847        C848   1.402       .  A
C847        C852   1.413       .  A
C848        C849   1.398       .  A
C848        H863   1.085       .  S
C849        C850   1.415       .  A
C849        C853   1.444       .  S
C850        C851   1.403       .  A
C851        C852   1.402       .  A
C851        H864   1.085       .  S
C852        C854   1.444       .  S
C853        N857   1.157       .  T
C854        N858   1.157       .  T
C855        N860   1.157       .  T
C856        N859   1.157       .  T
C865        C866   1.411       .  A
C865        C870   1.405       .  A
C865        C879   1.443       .  S
C866        C867   1.405       .  A
C866        C871   1.500       .  S
C867        C868   1.406       .  A
C867        H886   1.085       .  S
C868        C869   1.420       .  A
C868        C880   1.444       .  S
C869        C870   1.408       .  A
C870        H885   1.084       .  S
C871        C872   1.407       .  A
C871        C876   1.414       .  A
C872        C873   1.405       .  A
C872        H887   1.085       .  S
C873        C874   1.412       .  A
C873        C877   1.444       .  S
C874        C875   1.404       .  A
C875        C876   1.404       .  A
C875        H888   1.085       .  S
C876        C878   1.443       .  S
C877        N881   1.157       .  T
C878        N882   1.157       .  T
C879        N884   1.157       .  T
C880        N883   1.158       .  T
C889        C890   1.410       .  A
C889        C894   1.399       .  A
C889        C903   1.444       .  S
C890        C891   1.403       .  A
C890        C895   1.485       .  S
C891        C892   1.401       .  A
C891        H910   1.086       .  S
C892        C893   1.415       .  A
C892        C904   1.444   1_545  S
C893        C894   1.405       .  A
C894        H909   1.085       .  S
C895        C896   1.403       .  A
C895        C900   1.411       .  A
C896        C897   1.400       .  A
C896        H911   1.085       .  S
C897        C898   1.413       .  A
C897        C901   1.444       .  S
C898        C899   1.404       .  A
C899        C900   1.399       .  A
C899        H912   1.085   1_554  S
C900        C902   1.444   1_554  S
C901        N905   1.157       .  T
C902        N906   1.157       .  T
C903        N908   1.157       .  T
C904        N907   1.157       .  T
C913        C914   1.412       .  A
C913        C918   1.401       .  A
C913        C927   1.444       .  S
C914        C915   1.406       .  A
C914        C919   1.496       .  S
C915        C916   1.406       .  A
C915        H934   1.085       .  S
C916        C917   1.415       .  A
C916        C928   1.443       .  S
C917        C918   1.406       .  A
C918        H933   1.084       .  S
C919        C920   1.405       .  A
C919        C924   1.412       .  A
C920        C921   1.403       .  A
C920        H935   1.085       .  S
C921        C922   1.414       .  A
C921        C925   1.444       .  S
C922        C923   1.406       .  A
C923        C924   1.403       .  A
C923        H936   1.085       .  S
C924        C926   1.444       .  S
C925        N929   1.157       .  T
C926        N930   1.157       .  T
C927        N932   1.157       .  T
C928        N931   1.157       .  T
C937        C938   1.408       .  A
C937        C942   1.401   1_554  A
C937        C951   1.444   1_554  S
C938        C939   1.401       .  A
C938        C943   1.483       .  S
C939        C940   1.403       .  A
C939        H958   1.084       .  S
C940        C941   1.415       .  A
C940        C952   1.443       .  S
C941        C942   1.407   1_554  A
C942        H957   1.083       .  S
C943        C944   1.402       .  A
C943        C948   1.406       .  A
C944        C945   1.405       .  A
C944        H959   1.085       .  S
C945        C946   1.417       .  A
C945        C949   1.443       .  S
C946        C947   1.409       .  A
C947        C948   1.398       .  A
C947        H960   1.084       .  S
C948        C950   1.444   1_554  S
C949        N953   1.157       .  T
C950        N954   1.157       .  T
C951        N956   1.157       .  T
C952        N955   1.157       .  T
C961        C962   1.410       .  A
C961        C966   1.400       .  A
C961        C975   1.444       .  S
C962        C963   1.403       .  A
C962        C967   1.490       .  S
C963        C964   1.403       .  A
C963        H982   1.085       .  S
C964        C965   1.420       .  A
C964        C976   1.444       .  S
C965        C966   1.407       .  A
C966        H981   1.083       .  S
C967        C968   1.404       .  A
C967        C972   1.411       .  A
C968        C969   1.401       .  A
C968        H983   1.085       .  S
C969        C970   1.414       .  A
C969        C973   1.444       .  S
C970        C971   1.406       .  A
C971        C972   1.401       .  A
C971        H984   1.085       .  S
C972        C974   1.444       .  S
C973        N977   1.157       .  T
C974        N978   1.157       .  T
C975        N980   1.157       .  T
C976        N979   1.158       .  T
C985        C986   1.409       .  A
C985        C990   1.399       .  A
C985        C999   1.444       .  S
C986        C987   1.405       .  A
C986        C991   1.486       .  S
C987        C988   1.403       .  A
C987       H1006   1.085       .  S
C988        C989   1.411       .  A
C988       C1000   1.443       .  S
C989        C990   1.404       .  A
C990       H1005   1.085       .  S
C991        C992   1.406       .  A
C991        C996   1.408       .  A
C992        C993   1.403       .  A
C992       H1007   1.085       .  S
C993        C994   1.411       .  A
C993        C997   1.444       .  S
C994        C995   1.404       .  A
C995        C996   1.399       .  A
C995       H1008   1.085       .  S
C996        C998   1.444       .  S
C997       N1001   1.157       .  T
C998       N1002   1.157       .  T
C999       N1004   1.157       .  T
C1000      N1003   1.157       .  T
C1009      C1010   1.407       .  A
C1009      C1014   1.400       .  A
C1009      C1023   1.444       .  S
C1010      C1011   1.400       .  A
C1010      C1015   1.480       .  S
C1011      C1012   1.402       .  A
C1011      H1030   1.086       .  S
C1012      C1013   1.417       .  A
C1012      C1024   1.443       .  S
C1013      C1014   1.406       .  A
C1014      H1029   1.085       .  S
C1015      C1016   1.400       .  A
C1015      C1020   1.408       .  A
C1016      C1017   1.400       .  A
C1016      H1031   1.084       .  S
C1017      C1018   1.416       .  A
C1017      C1021   1.443   1_556  S
C1018      C1019   1.407       .  A
C1019      C1020   1.402       .  A
C1019      H1032   1.084       .  S
C1020      C1022   1.444       .  S
C1021      N1025   1.157       .  T
C1022      N1026   1.157       .  T
C1023      N1028   1.157       .  T
C1024      N1027   1.157       .  T
C1033      C1034   1.409       .  A
C1033      C1038   1.401       .  A
C1033      C1047   1.444       .  S
C1034      C1035   1.402       .  A
C1034      C1039   1.488       .  S
C1035      C1036   1.403       .  A
C1035      H1054   1.085       .  S
C1036      C1037   1.417       .  A
C1036      C1048   1.443       .  S
C1037      C1038   1.408       .  A
C1038      H1053   1.084       .  S
C1039      C1040   1.402       .  A
C1039      C1044   1.409       .  A
C1040      C1041   1.404       .  A
C1040      H1055   1.084       .  S
C1041      C1042   1.418       .  A
C1041      C1045   1.443       .  S
C1042      C1043   1.409       .  A
C1043      C1044   1.401       .  A
C1043      H1056   1.083       .  S
C1044      C1046   1.444       .  S
C1045      N1049   1.157       .  T
C1046      N1050   1.157       .  T
C1047      N1052   1.157       .  T
C1048      N1051   1.157       .  T
C1057      C1058   1.408       .  A
C1057      C1062   1.402       .  A
C1057      C1071   1.444       .  S
C1058      C1059   1.401       .  A
C1058      C1063   1.486       .  S
C1059      C1060   1.403       .  A
C1059      H1078   1.085       .  S
C1060      C1061   1.417       .  A
C1060      C1072   1.443       .  S
C1061      C1062   1.408       .  A
C1062      H1077   1.084       .  S
C1063      C1064   1.399       .  A
C1063      C1068   1.409       .  A
C1064      C1065   1.401   1_556  A
C1064      H1079   1.085       .  S
C1065      C1066   1.419       .  A
C1065      C1069   1.443       .  S
C1066      C1067   1.408       .  A
C1067      C1068   1.405   1_554  A
C1067      H1080   1.084       .  S
C1068      C1070   1.443       .  S
C1069      N1073   1.157       .  T
C1070      N1074   1.157       .  T
C1071      N1076   1.157       .  T
C1072      N1075   1.157       .  T
C1081      C1082   1.408       .  A
C1081      C1086   1.400       .  A
C1081      C1095   1.444       .  S
C1082      C1083   1.401   1_556  A
C1082      C1087   1.481       .  S
C1083      C1084   1.401       .  A
C1083      H1102   1.086       .  S
C1084      C1085   1.415       .  A
C1084      C1096   1.444       .  S
C1085      C1086   1.406   1_554  A
C1086      H1101   1.085   1_655  S
C1087      C1088   1.400       .  A
C1087      C1092   1.409       .  A
C1088      C1089   1.401       .  A
C1088      H1103   1.084       .  S
C1089      C1090   1.414       .  A
C1089      C1093   1.444       .  S
C1090      C1091   1.405       .  A
C1091      C1092   1.400       .  A
C1091      H1104   1.084       .  S
C1092      C1094   1.444   1_556  S
C1093      N1097   1.157       .  T
C1094      N1098   1.157       .  T
C1095      N1100   1.157   1_655  T
C1096      N1099   1.157       .  T
C1105      C1106   1.411       .  A
C1105      C1110   1.405       .  A
C1105      C1119   1.444       .  S
C1106      C1107   1.402   1_556  A
C1106      C1111   1.489       .  S
C1107      C1108   1.402       .  A
C1107      H1126   1.087       .  S
C1108      C1109   1.414       .  A
C1108      C1120   1.443       .  S
C1109      C1110   1.406   1_554  A
C1110      H1125   1.087       .  S
C1111      C1112   1.401       .  A
C1111      C1116   1.410       .  A
C1112      C1113   1.402       .  A
C1112      H1127   1.086       .  S
C1113      C1114   1.417       .  A
C1113      C1117   1.444       .  S
C1114      C1115   1.407       .  A
C1115      C1116   1.405       .  A
C1115      H1128   1.085       .  S
C1116      C1118   1.443       .  S
C1117      N1121   1.157       .  T
C1118      N1122   1.157       .  T
C1119      N1124   1.157       .  T
C1120      N1123   1.157       .  T
C1129      C1130   1.411       .  A
C1129      C1134   1.405       .  A
C1129      C1143   1.443       .  S
C1130      C1131   1.400       .  A
C1130      C1135   1.485       .  S
C1131      C1132   1.398       .  A
C1131      H1150   1.085       .  S
C1132      C1133   1.415       .  A
C1132      C1144   1.444       .  S
C1133      C1134   1.405       .  A
C1134      H1149   1.085       .  S
C1135      C1136   1.400       .  A
C1135      C1140   1.410       .  A
C1136      C1137   1.399       .  A
C1136      H1151   1.085       .  S
C1137      C1138   1.417       .  A
C1137      C1141   1.444       .  S
C1138      C1139   1.406       .  A
C1139      C1140   1.403       .  A
C1139      H1152   1.085       .  S
C1140      C1142   1.443       .  S
C1141      N1145   1.157       .  T
C1142      N1146   1.157       .  T
C1143      N1148   1.157       .  T
C1144      N1147   1.157       .  T
C1153      C1154   1.415       .  A
C1153      C1158   1.406       .  A
C1153      C1167   1.444       .  S
C1154      C1155   1.407       .  A
C1154      C1159   1.502       .  S
C1155      C1156   1.409       .  A
C1155      H1174   1.084       .  S
C1156      C1157   1.413       .  A
C1156      C1168   1.444       .  S
C1157      C1158   1.403       .  A
C1158      H1173   1.085       .  S
C1159      C1160   1.406       .  A
C1159      C1164   1.415       .  A
C1160      C1161   1.405   1_556  A
C1160      H1175   1.085   1_556  S
C1161      C1162   1.413       .  A
C1161      C1165   1.443       .  S
C1162      C1163   1.406   1_554  A
C1163      C1164   1.408       .  A
C1163      H1176   1.085       .  S
C1164      C1166   1.443       .  S
C1165      N1169   1.157       .  T
C1166      N1170   1.157       .  T
C1167      N1172   1.157       .  T
C1168      N1171   1.157       .  T
C1177      C1178   1.411       .  A
C1177      C1182   1.408       .  A
C1177      C1191   1.443       .  S
C1178      C1179   1.400       .  A
C1178      C1183   1.491       .  S
C1179      C1180   1.403       .  A
C1179      H1198   1.085       .  S
C1180      C1181   1.418       .  A
C1180      C1192   1.444       .  S
C1181      C1182   1.408       .  A
C1182      H1197   1.084       .  S
C1183      C1184   1.404       .  A
C1183      C1188   1.408       .  A
C1184      C1185   1.407       .  A
C1184      H1199   1.084       .  S
C1185      C1186   1.416       .  A
C1185      C1189   1.443   1_655  S
C1186      C1187   1.408       .  A
C1187      C1188   1.402       .  A
C1187      H1200   1.084       .  S
C1188      C1190   1.444       .  S
C1189      N1193   1.157       .  T
C1190      N1194   1.157       .  T
C1191      N1196   1.157       .  T
C1192      N1195   1.157       .  T
C1201      C1202   1.414       .  A
C1201      C1206   1.402       .  A
C1201      C1215   1.444   1_554  S
C1202      C1203   1.404       .  A
C1202      C1207   1.496   1_554  S
C1203      C1204   1.403       .  A
C1203      H1222   1.084       .  S
C1204      C1205   1.416       .  A
C1204      C1216   1.443       .  S
C1205      C1206   1.406       .  A
C1206      H1221   1.083       .  S
C1207      C1208   1.405       .  A
C1207      C1212   1.415   1_556  A
C1208      C1209   1.401       .  A
C1208      H1223   1.085       .  S
C1209      C1210   1.412   1_545  A
C1209      C1213   1.444   1_545  S
C1210      C1211   1.403   1_665  A
C1211      C1212   1.404   1_456  A
C1211      H1224   1.085   1_546  S
C1212      C1214   1.444       .  S
C1213      N1217   1.157       .  T
C1214      N1218   1.157   1_655  T
C1215      N1220   1.157       .  T
C1216      N1219   1.157       .  T
C1225      C1226   1.412       .  A
C1225      C1230   1.404       .  A
C1225      C1239   1.444       .  S
C1226      C1227   1.403   1_556  A
C1226      C1231   1.494   1_556  S
C1227      C1228   1.403   1_554  A
C1227      H1246   1.088       .  S
C1228      C1229   1.418       .  A
C1228      C1240   1.443   1_556  S
C1229      C1230   1.407       .  A
C1230      H1245   1.086       .  S
C1231      C1232   1.405       .  A
C1231      C1236   1.412       .  A
C1232      C1233   1.406       .  A
C1232      H1247   1.086       .  S
C1233      C1234   1.415       .  A
C1233      C1237   1.443       .  S
C1234      C1235   1.408       .  A
C1235      C1236   1.402       .  A
C1235      H1248   1.085       .  S
C1236      C1238   1.444       .  S
C1237      N1241   1.157       .  T
C1238      N1242   1.157       .  T
C1239      N1244   1.157       .  T
C1240      N1243   1.157       .  T
C1249      C1250   1.412       .  A
C1249      C1254   1.403       .  A
C1249      C1263   1.444       .  S
C1250      C1251   1.403       .  A
C1250      C1255   1.492       .  S
C1251      C1252   1.403       .  A
C1251      H1270   1.085       .  S
C1252      C1253   1.416       .  A
C1252      C1264   1.444       .  S
C1253      C1254   1.405       .  A
C1254      H1269   1.085       .  S
C1255      C1256   1.403       .  A
C1255      C1260   1.412       .  A
C1256      C1257   1.402       .  A
C1256      H1271   1.085       .  S
C1257      C1258   1.414       .  A
C1257      C1261   1.444   1_565  S
C1258      C1259   1.405       .  A
C1259      C1260   1.405       .  A
C1259      H1272   1.085       .  S
C1260      C1262   1.443       .  S
C1261      N1265   1.157       .  T
C1262      N1266   1.157       .  T
C1263      N1268   1.157       .  T
C1264      N1267   1.157       .  T
C1273      C1274   1.409       .  A
C1273      C1278   1.400       .  A
C1273      C1287   1.444       .  S
C1274      C1275   1.402   1_545  A
C1274      C1279   1.483       .  S
C1275      C1276   1.402       .  A
C1275      H1294   1.084       .  S
C1276      C1277   1.415       .  A
C1276      C1288   1.444       .  S
C1277      C1278   1.405   1_565  A
C1278      H1293   1.084       .  S
C1279      C1280   1.400       .  A
C1279      C1284   1.409       .  A
C1280      C1281   1.400       .  A
C1280      H1295   1.085       .  S
C1281      C1282   1.416       .  A
C1281      C1285   1.444       .  S
C1282      C1283   1.406       .  A
C1283      C1284   1.402       .  A
C1283      H1296   1.085       .  S
C1284      C1286   1.444       .  S
C1285      N1289   1.157       .  T
C1286      N1290   1.157   1_545  T
C1287      N1292   1.157       .  T
C1288      N1291   1.157       .  T
C1297      C1298   1.407       .  A
C1297      C1302   1.397       .  A
C1297      C1311   1.444       .  S
C1298      C1299   1.400       .  A
C1298      C1303   1.477       .  S
C1299      C1300   1.401       .  A
C1299      H1318   1.085       .  S
C1300      C1301   1.417       .  A
C1300      C1312   1.443       .  S
C1301      C1302   1.407       .  A
C1302      H1317   1.084   1_545  S
C1303      C1304   1.400       .  A
C1303      C1308   1.407       .  A
C1304      C1305   1.400       .  A
C1304      H1319   1.084       .  S
C1305      C1306   1.414       .  A
C1305      C1309   1.443       .  S
C1306      C1307   1.406       .  A
C1307      C1308   1.399       .  A
C1307      H1320   1.084       .  S
C1308      C1310   1.445       .  S
C1309      N1313   1.157       .  T
C1310      N1314   1.157       .  T
C1311      N1316   1.157       .  T
C1312      N1315   1.157       .  T
C1321      C1322   1.407       .  A
C1321      C1326   1.399       .  A
C1321      C1335   1.444       .  S
C1322      C1323   1.402       .  A
C1322      C1327   1.482       .  S
C1323      C1324   1.404       .  A
C1323      H1342   1.085       .  S
C1324      C1325   1.415       .  A
C1324      C1336   1.444       .  S
C1325      C1326   1.406       .  A
C1326      H1341   1.084       .  S
C1327      C1328   1.399       .  A
C1327      C1332   1.408       .  A
C1328      C1329   1.400       .  A
C1328      H1343   1.085       .  S
C1329      C1330   1.415       .  A
C1329      C1333   1.443       .  S
C1330      C1331   1.407       .  A
C1331      C1332   1.404       .  A
C1331      H1344   1.084       .  S
C1332      C1334   1.444       .  S
C1333      N1337   1.157       .  T
C1334      N1338   1.157       .  T
C1335      N1340   1.157       .  T
C1336      N1339   1.157       .  T
C1345      C1346   1.413       .  A
C1345      C1350   1.402       .  A
C1345      C1359   1.444       .  S
C1346      C1347   1.405   1_545  A
C1346      C1351   1.494       .  S
C1347      C1348   1.405       .  A
C1347      H1366   1.085       .  S
C1348      C1349   1.414       .  A
C1348      C1360   1.443       .  S
C1349      C1350   1.405   1_565  A
C1350      H1365   1.085       .  S
C1351      C1352   1.403       .  A
C1351      C1356   1.411       .  A
C1352      C1353   1.404       .  A
C1352      H1367   1.085       .  S
C1353      C1354   1.418       .  A
C1353      C1357   1.443       .  S
C1354      C1355   1.408       .  A
C1355      C1356   1.403       .  A
C1355      H1368   1.084       .  S
C1356      C1358   1.444       .  S
C1357      N1361   1.158       .  T
C1358      N1362   1.157       .  T
C1359      N1364   1.157       .  T
C1360      N1363   1.157       .  T
C1369      C1370   1.414       .  A
C1369      C1374   1.404   1_655  A
C1369      C1383   1.444       .  S
C1370      C1371   1.402       .  A
C1370      C1375   1.491       .  S
C1371      C1372   1.400       .  A
C1371      H1390   1.085       .  S
C1372      C1373   1.415       .  A
C1372      C1384   1.444       .  S
C1373      C1374   1.404   1_655  A
C1374      H1389   1.085       .  S
C1375      C1376   1.402       .  A
C1375      C1380   1.414       .  A
C1376      C1377   1.400       .  A
C1376      H1391   1.085       .  S
C1377      C1378   1.415       .  A
C1377      C1381   1.444       .  S
C1378      C1379   1.404       .  A
C1379      C1380   1.404       .  A
C1379      H1392   1.085       .  S
C1380      C1382   1.444       .  S
C1381      N1385   1.157       .  T
C1382      N1386   1.157       .  T
C1383      N1388   1.157   1_655  T
C1384      N1387   1.157       .  T
C1393      C1394   1.412       .  A
C1393      C1398   1.406       .  A
C1393      C1407   1.444       .  S
C1394      C1395   1.402       .  A
C1394      C1399   1.493       .  S
C1395      C1396   1.402       .  A
C1395      H1414   1.085       .  S
C1396      C1397   1.418       .  A
C1396      C1408   1.443       .  S
C1397      C1398   1.407       .  A
C1398      H1413   1.084       .  S
C1399      C1400   1.403       .  A
C1399      C1404   1.412       .  A
C1400      C1401   1.403       .  A
C1400      H1415   1.085       .  S
C1401      C1402   1.417       .  A
C1401      C1405   1.443       .  S
C1402      C1403   1.407       .  A
C1403      C1404   1.405       .  A
C1403      H1416   1.085       .  S
C1404      C1406   1.444       .  S
C1405      N1409   1.157       .  T
C1406      N1410   1.157       .  T
C1407      N1412   1.157       .  T
C1408      N1411   1.157       .  T
C1417      C1418   1.412       .  A
C1417      C1422   1.402       .  A
C1417      C1431   1.444       .  S
C1418      C1419   1.405       .  A
C1418      C1423   1.494       .  S
C1419      C1420   1.405       .  A
C1419      H1438   1.085       .  S
C1420      C1421   1.414       .  A
C1420      C1432   1.443       .  S
C1421      C1422   1.405       .  A
C1422      H1437   1.085       .  S
C1423      C1424   1.403       .  A
C1423      C1428   1.412       .  A
C1424      C1425   1.403       .  A
C1424      H1439   1.085       .  S
C1425      C1426   1.417       .  A
C1425      C1429   1.444       .  S
C1426      C1427   1.407       .  A
C1427      C1428   1.405       .  A
C1427      H1440   1.084       .  S
C1428      C1430   1.443       .  S
C1429      N1433   1.157       .  T
C1430      N1434   1.157       .  T
C1431      N1436   1.157       .  T
C1432      N1435   1.157       .  T
C1441      C1442   1.414       .  A
C1441      C1446   1.405       .  A
C1441      C1455   1.443       .  S
C1442      C1443   1.405       .  A
C1442      C1447   1.498       .  S
C1443      C1444   1.402       .  A
C1443      H1462   1.085       .  S
C1444      C1445   1.414       .  A
C1444      C1456   1.444       .  S
C1445      C1446   1.404       .  A
C1446      H1461   1.085       .  S
C1447      C1448   1.405       .  A
C1447      C1452   1.414       .  A
C1448      C1449   1.403       .  A
C1448      H1463   1.085       .  S
C1449      C1450   1.415       .  A
C1449      C1453   1.444       .  S
C1450      C1451   1.405   1_655  A
C1451      C1452   1.403   1_455  A
C1451      H1464   1.084       .  S
C1452      C1454   1.444   1_655  S
C1453      N1457   1.157       .  T
C1454      N1458   1.157       .  T
C1455      N1460   1.157       .  T
C1456      N1459   1.157       .  T
C1465      C1466   1.408       .  A
C1465      C1470   1.400       .  A
C1465      C1479   1.444       .  S
C1466      C1467   1.402       .  A
C1466      C1471   1.482       .  S
C1467      C1468   1.400   1_655  A
C1467      H1486   1.084       .  S
C1468      C1469   1.415   1_455  A
C1468      C1480   1.443       .  S
C1469      C1470   1.407       .  A
C1470      H1485   1.083       .  S
C1471      C1472   1.402       .  A
C1471      C1476   1.409       .  A
C1472      C1473   1.401       .  A
C1472      H1487   1.085       .  S
C1473      C1474   1.415       .  A
C1473      C1477   1.444       .  S
C1474      C1475   1.405       .  A
C1475      C1476   1.398       .  A
C1475      H1488   1.084       .  S
C1476      C1478   1.444       .  S
C1477      N1481   1.157       .  T
C1478      N1482   1.157   1_655  T
C1479      N1484   1.157       .  T
C1480      N1483   1.157       .  T
C1489      C1490   1.413       .  A
C1489      C1494   1.401       .  A
C1489      C1503   1.444       .  S
C1490      C1491   1.406       .  A
C1490      C1495   1.494       .  S
C1491      C1492   1.402       .  A
C1491      H1510   1.085       .  S
C1492      C1493   1.412       .  A
C1492      C1504   1.443       .  S
C1493      C1494   1.405       .  A
C1494      H1509   1.085       .  S
C1495      C1496   1.407       .  A
C1495      C1500   1.413       .  A
C1496      C1497   1.403       .  A
C1496      H1511   1.084       .  S
C1497      C1498   1.410       .  A
C1497      C1501   1.443       .  S
C1498      C1499   1.403       .  A
C1499      C1500   1.400       .  A
C1499      H1512   1.085       .  S
C1500      C1502   1.444       .  S
C1501      N1505   1.157       .  T
C1502      N1506   1.157       .  T
C1503      N1508   1.157       .  T
C1504      N1507   1.157       .  T
C1513      C1514   1.406       .  A
C1513      C1518   1.399       .  A
C1513      C1527   1.444       .  S
C1514      C1515   1.399       .  A
C1514      C1519   1.477       .  S
C1515      C1516   1.399       .  A
C1515      H1534   1.085       .  S
C1516      C1517   1.417       .  A
C1516      C1528   1.443       .  S
C1517      C1518   1.409       .  A
C1518      H1533   1.084       .  S
C1519      C1520   1.401       .  A
C1519      C1524   1.408       .  A
C1520      C1521   1.400       .  A
C1520      H1535   1.085       .  S
C1521      C1522   1.414       .  A
C1521      C1525   1.444       .  S
C1522      C1523   1.404       .  A
C1523      C1524   1.397       .  A
C1523      H1536   1.085       .  S
C1524      C1526   1.444       .  S
C1525      N1529   1.157       .  T
C1526      N1530   1.157       .  T
C1527      N1532   1.157       .  T
C1528      N1531   1.157       .  T
