geometry optimzed in LAMMPS
_audit_creation_date              2020-11-30 
_audit_creation_method            'lammps2cif' 
_symmetry_space_group_name_H-M    'P1' 
_symmetry_Int_Tables_number       1 
_symmetry_cell_setting            triclinic 
loop_ 
_symmetry_equiv_pos_as_xyz 
  x,y,z 
_cell_length_a                    45.54273403 
_cell_length_b                    17.536899426633305 
_cell_length_c                    41.18421207545859 
_cell_angle_alpha                 89.76150613310283 
_cell_angle_beta                  89.73856703425399 
_cell_angle_gamma                 89.71458435194982 
loop_ 
_atom_site_label 
_atom_site_type_symbol 
_atom_site_fract_x 
_atom_site_fract_y 
_atom_site_fract_z 
_atom_site_charge 
C1          C  0.03975315  0.20335001  0.09249659     0.81500
N2          N  0.05100826  0.21217540  0.06188257    -0.76800
C3          C  0.04312756  0.16385045  0.03767744     0.84000
N4          N  0.02396360  0.10689951  0.04418948    -0.76700
C5          C  0.01256137  0.09688494  0.07433655     0.84100
N6          N  0.02107883  0.14408266  0.09882079    -0.78400
O7          O  0.97179547  0.86783065  0.01030196    -0.77200
C8          C  0.88401922  0.90387310  0.03625838     0.83800
O9          O  0.99494386  0.99116391  0.10566872    -0.78300
O10         O  0.89301774  0.90810991  0.12513728    -0.79800
O11         O  0.93215932  0.66894055  0.07206704    -0.79600
O12         O  0.98866399  0.75465823  0.02786033    -0.78200
Zn13       Zn  0.94967923  0.92043491  0.04644312     1.55700
O14         O  0.90182515  0.72026779  0.10818705    -0.79600
Cd15       Cd  0.96694190  0.74889221  0.07375583     1.59700
Cd16       Cd  0.96686456  0.90364465  0.12053481     1.59600
O17         O  0.99225636  0.71969134  0.11491078    -0.79600
O18         O  0.95004472  0.85156729  0.08253262    -1.90100
Cd19       Cd  0.90928755  0.82965425  0.09361136     1.59900
O20         O  0.98563706  0.81780698  0.14929779    -0.79600
O21         O  0.88460991  0.84391630  0.05351730    -0.78200
C22         C  0.99277179  0.03130045  0.07979845     0.84300
C23         C  0.98680813  0.80696699  0.00600429     0.84000
O24         O  0.90661229  0.94660817  0.03311970    -0.77200
C25         C  0.90884645  0.66550899  0.08960185     0.84800
O26         O  0.97490191  0.01368982  0.05712711    -0.77300
C27         C  0.99466242  0.74998458  0.14313050     0.84900
C28         C  0.90549223  0.95792636  0.14250327     0.85200
O29         O  0.93338869  0.96170902  0.14437125    -0.79700
C30         C  0.78156739  0.43029271  0.01411958     0.81500
N31         N  0.79728885  0.45712165  0.03995620    -0.76800
C32         C  0.82731410  0.45612215  0.03874436     0.84000
N33         N  0.84071709  0.43083577  0.51149030    -0.76700
C34         C  0.82558970  0.40684000  0.48551695     0.84100
N35         N  0.79589093  0.40695859  0.48675839    -0.78400
C36         C  0.00655519  0.70328168  0.17015273     0.81500
N37         N  0.02531943  0.64399639  0.16405055    -0.76800
C38         C  0.03452408  0.59794809  0.18876065     0.84000
N39         N  0.02369102  0.60922528  0.21914237    -0.76700
C40         C  0.00440688  0.66661845  0.22551713     0.84100
N41         N  0.99585682  0.71364635  0.20089898    -0.78400
O42         O  0.07630698  0.36842942  0.25224962    -0.77200
C43         C  0.16342022  0.39679862  0.22439710     0.83800
O44         O  0.05205806  0.49306480  0.15696819    -0.78300
O45         O  0.15374330  0.41019332  0.13890169    -0.79800
O46         O  0.11401734  0.16890239  0.18821160    -0.79600
O47         O  0.05838214  0.25695017  0.23483235    -0.78200
Zn48       Zn  0.09795207  0.42013557  0.21536774     1.55700
O49         O  0.14272078  0.22191831  0.15092871    -0.79600
Cd50       Cd  0.07925852  0.25022886  0.18832396     1.59700
Cd51       Cd  0.07989476  0.40528892  0.14087513     1.59600
O52         O  0.05319073  0.22195201  0.14785085    -0.79600
O53         O  0.09613598  0.35239047  0.17920015    -1.90100
Cd54       Cd  0.13665245  0.32883998  0.16844072     1.59900
O55         O  0.06077977  0.31844977  0.11260144    -0.79600
O56         O  0.16072844  0.33434720  0.20940113    -0.78200
C57         C  0.05436298  0.53221664  0.18301399     0.84300
C58         C  0.06082480  0.30869645  0.25669702     0.84000
O59         O  0.14182939  0.44373403  0.22673953    -0.77200
C60         C  0.13645478  0.16599858  0.16927390     0.84800
O61         O  0.07260326  0.51407604  0.20536193    -0.77300
C62         C  0.05128722  0.25121719  0.11928246     0.84900
C63         C  0.14191507  0.46012637  0.12074357     0.85200
O64         O  0.11405449  0.46341221  0.11728881    -0.79700
C65         C  0.26305755  0.93511726  0.24417316     0.81500
N66         N  0.24764531  0.95778771  0.21733801    -0.76800
C67         C  0.21772650  0.95526491  0.21755459     0.84000
N68         N  0.20381144  0.93271928  0.24488709    -0.76700
C69         C  0.21847565  0.91250204  0.27196573     0.84100
N70         N  0.24828654  0.91400115  0.27160859    -0.78400
C71         C  0.04110703  0.26650590  0.34273877     0.81500
N72         N  0.05224700  0.25713040  0.31208318    -0.76800
C73         C  0.04409153  0.30507425  0.28758618     0.84000
N74         N  0.02473494  0.36232371  0.29397507    -0.76700
C75         C  0.01339627  0.37269667  0.32422820     0.84100
N76         N  0.02220316  0.32566308  0.34882882    -0.78400
O77         O  0.90726259  0.52051874  0.28247595    -0.77200
C78         C  0.98744491  0.66233049  0.25610759     0.83800
O79         O  0.99349955  0.47501904  0.35639189    -0.78300
O80         O  0.99370957  0.74552662  0.36477414    -0.79800
O81         O  0.90076793  0.75144702  0.35490135    -0.79600
O82         O  0.88319278  0.62215328  0.30108646    -0.78200
Zn83       Zn  0.94993759  0.54948777  0.29599102     1.55700
O84         O  0.93484155  0.80529050  0.32394977    -0.79600
Cd85       Cd  0.90834552  0.64216179  0.34080614     1.59700
Cd86       Cd  0.96523849  0.56420993  0.37121000     1.59600
O87         O  0.89175640  0.56921195  0.37377971    -0.79600
O88         O  0.94954053  0.61780954  0.33225397    -1.90100
Cd89       Cd  0.96779501  0.71935530  0.32403330     1.59900
O90         O  0.93028846  0.50984160  0.39507189    -0.79600
O91         O  0.98954060  0.71364216  0.27815734    -0.78200
C92         C  0.99296261  0.43772464  0.32971133     0.84300
C93         C  0.88375668  0.56060172  0.28501480     0.84000
O94         O  0.97197117  0.60247859  0.26002826    -0.77200
C95         C  0.91075041  0.80939964  0.34012402     0.84800
O96         O  0.97596664  0.45726341  0.30643757    -0.77300
C97         C  0.90253138  0.51864621  0.39231145     0.84900
C98         C  0.99486035  0.71648298  0.39340308     0.85200
O99         O  0.98455980  0.65002875  0.39994597    -0.79700
C100        C  0.78778892  0.03789996  0.26397162     0.81500
N101        N  0.80351223  0.01755628  0.29091997    -0.76800
C102        C  0.83322015  0.02755668  0.29146324     0.84000
N103        N  0.84658037  0.05537612  0.26466598    -0.76700
C104        C  0.83173803  0.07326376  0.23740419     0.84100
N105        N  0.80215364  0.06424950  0.23712670    -0.78400
C106        C  0.00656169  0.76389655  0.42027754     0.81500
N107        N  0.02508513  0.82348533  0.41386141    -0.76800
C108        C  0.03366959  0.87076267  0.43827675     0.84000
N109        N  0.02252458  0.86016199  0.46856466    -0.76700
C110        C  0.00356947  0.80268980  0.47526220     0.84100
N111        N  0.99559188  0.75452485  0.45101401    -0.78400
O112        O  0.13972778  0.01401470  0.47844903    -0.77200
C113        C  0.05994535  0.15923982  0.50712671     0.83800
O114        O  0.05286918  0.97464916  0.40628213    -0.78300
O115        O  0.05430681  0.24794172  0.39825554    -0.79800
O116        O  0.14635949  0.25146698  0.41043229    -0.79600
O117        O  0.16179338  0.12074566  0.46285476    -0.78200
Zn118      Zn  0.09690126  0.04611092  0.46664475     1.55700
O119        O  0.11242597  0.30131185  0.44281811    -0.79600
Cd120      Cd  0.13823158  0.14013129  0.42211102     1.59700
Cd121      Cd  0.08097981  0.06439044  0.39215816     1.59600
O122        O  0.15526848  0.06618393  0.38893449    -0.79600
O123        O  0.09705636  0.11626363  0.43082597    -1.90100
Cd124      Cd  0.07919249  0.21792284  0.43959114     1.59900
O125        O  0.11576883  0.01084768  0.36825184    -0.79600
O126        O  0.05720253  0.21023651  0.48488428    -0.78200
C127        C  0.05372770  0.93620645  0.43277234     0.84300
C128        C  0.16252933  0.05631580  0.47680966     0.84000
O129        O  0.07568069  0.09936188  0.50330616    -0.77200
C130        C  0.13676309  0.30680651  0.42729354     0.84800
O131        O  0.07071117  0.95509856  0.45602336    -0.77300
C132        C  0.14361859  0.01734295  0.37034816     0.84900
C133        C  0.05261375  0.21870446  0.36977717     0.85200
O134        O  0.06206930  0.15125172  0.36347557    -0.79700
C135        C  0.25912991  0.55612615  0.49983584     0.81500
N136        N  0.24262311  0.53063425  0.47452621    -0.76800
C137        C  0.21278270  0.53484580  0.47572406     0.84000
N138        N  0.19987749  0.56306608  0.00260347    -0.76700
C139        C  0.21560308  0.58633117  0.02843391     0.84100
N140        N  0.24543145  0.58243495  0.02701447    -0.78400
C141        C  0.50416449  0.69344037  0.08676316     0.81500
N142        N  0.49237806  0.70075888  0.05630097    -0.76800
C143        C  0.49952117  0.64964670  0.03256993     0.84000
N144        N  0.51838280  0.59191424  0.03953713    -0.76700
C145        C  0.53021786  0.58371616  0.06948506     0.84100
N146        N  0.52256663  0.63359242  0.09335627    -0.78400
O147        O  0.63599537  0.43644559  0.02789270    -0.77200
C148        C  0.55718894  0.29099271  0.00177537     0.83800
O149        O  0.55043835  0.48319472  0.10229625    -0.78300
O150        O  0.55210256  0.21391003  0.11165719    -0.79800
O151        O  0.64117558  0.21655440  0.10493829    -0.79600
O152        O  0.65491411  0.32463290  0.04175900    -0.78200
Zn153      Zn  0.59306390  0.40801033  0.04076871     1.55700
O154        O  0.61138363  0.15735169  0.07118717    -0.79600
Cd155      Cd  0.63410578  0.32066574  0.08500695     1.59700
Cd156      Cd  0.57928300  0.39574756  0.11682147     1.59600
O157        O  0.65298804  0.40227826  0.11229535    -0.79600
O158        O  0.59320316  0.34238133  0.07756105    -1.90100
Cd159      Cd  0.57698988  0.23914615  0.07017884     1.59900
O160        O  0.61477975  0.45171204  0.13844691    -0.79600
O161        O  0.55555944  0.24029583  0.02431460    -0.78200
C162        C  0.55054550  0.51920707  0.07516426     0.84300
C163        C  0.65758930  0.38939960  0.02836752     0.84000
O164        O  0.57174280  0.35249343  0.00521115    -0.77200
C165        C  0.63415309  0.15730833  0.08937506     0.84800
O166        O  0.56705069  0.49894951  0.05148230    -0.77300
C167        C  0.64237652  0.44906367  0.13262571     0.84900
C168        C  0.55197831  0.24217206  0.14035858     0.85200
O169        O  0.56199312  0.30882397  0.14661701    -0.79700
C170        C  0.76088576  0.92852356  0.01833044     0.81500
N171        N  0.74535131  0.95041199  0.04524727    -0.76800
C172        C  0.71549423  0.94471042  0.04562165     0.84000
N173        N  0.70177930  0.92005909  0.51853661    -0.76700
C174        C  0.71660059  0.90057431  0.49140418     0.84100
N175        N  0.74632717  0.90515042  0.49127467    -0.78400
C176        C  0.54146502  0.19322789  0.16729696     0.81500
N177        N  0.55330351  0.19952759  0.19766193    -0.76800
C178        C  0.54592691  0.14846894  0.22137919     0.84000
N179        N  0.52689101  0.09176119  0.21453001    -0.76700
C180        C  0.51513517  0.08473020  0.18457057     0.84100
N181        N  0.52291200  0.13451213  0.16073264    -0.78400
O182        O  0.40873800  0.94465536  0.22626796    -0.77200
C183        C  0.48676941  0.79683926  0.25231295     0.83800
O184        O  0.49596396  0.98472788  0.15187090    -0.78300
O185        O  0.49262029  0.71543665  0.14243291    -0.79800
O186        O  0.40286865  0.72813808  0.14786886    -0.79600
O187        O  0.38633653  0.84206013  0.20732373    -0.78200
Zn188      Zn  0.45121410  0.91418684  0.21234431     1.55700
O189        O  0.43231135  0.66835997  0.18257755    -0.79600
Cd190      Cd  0.41027186  0.83302452  0.16604634     1.59700
Cd191      Cd  0.46738909  0.89983370  0.13601973     1.59600
O192        O  0.39431317  0.91381717  0.13559767    -0.79600
O193        O  0.45125732  0.84947972  0.17529842    -1.90100
Cd194      Cd  0.46747571  0.74583684  0.18351916     1.59900
O195        O  0.43413165  0.95849415  0.11113574    -0.79600
O196        O  0.48839328  0.74592277  0.22998593    -0.78200
C197        C  0.49483627  0.02158534  0.17863903     0.84300
C198        C  0.38598732  0.90241820  0.22411145     0.84000
O199        O  0.47239571  0.85881500  0.24835205    -0.77200
C200        C  0.40964041  0.66939440  0.16425597     0.84800
O201        O  0.47733420  0.00347586  0.20172188    -0.77300
C202        C  0.40629968  0.95801332  0.11507838     0.84900
C203        C  0.49383255  0.74350647  0.11360584     0.85200
O204        O  0.48491987  0.81138725  0.10704885    -0.79700
C205        C  0.28797197  0.41981661  0.23615742     0.81500
N206        N  0.30386394  0.39259452  0.26173173    -0.76800
C207        C  0.33371669  0.39157536  0.26049352     0.84000
N208        N  0.34727123  0.41836059  0.23361205    -0.76700
C209        C  0.33215184  0.44685511  0.20817836     0.84100
N210        N  0.30229901  0.44874573  0.20968779    -0.78400
C211        C  0.53818400  0.24493180  0.41640925     0.81500
N212        N  0.51918844  0.30370244  0.40991349    -0.76800
C213        C  0.50986965  0.35054537  0.43430129     0.84000
N214        N  0.52082278  0.34074962  0.46458144    -0.76700
C215        C  0.54035990  0.28436510  0.47133560     0.84100
N216        N  0.54905485  0.23638233  0.44714722    -0.78400
O217        O  0.46940692  0.58204261  0.49689663    -0.77200
C218        C  0.38098057  0.55074377  0.47218492     0.83800
O219        O  0.49324514  0.45691636  0.40270055    -0.78300
O220        O  0.39290380  0.53817677  0.37816991    -0.79800
O221        O  0.42970413  0.77848543  0.43214878    -0.79600
O222        O  0.48407061  0.69718081  0.48003654    -0.78200
Zn223      Zn  0.44687528  0.52931814  0.46134995     1.55700
O224        O  0.39989740  0.72507551  0.39632952    -0.79600
Cd225      Cd  0.46412138  0.69855612  0.43322386     1.59700
Cd226      Cd  0.46600273  0.54524441  0.38616362     1.59600
O227        O  0.49067380  0.72976772  0.39317897    -0.79600
O228        O  0.44746991  0.59573147  0.42416166    -1.90100
Cd229      Cd  0.40697897  0.61555851  0.41125050     1.59900
O230        O  0.48532052  0.63278195  0.35824353    -0.79600
O231        O  0.38039525  0.60113745  0.45005731    -0.78200
C232        C  0.49013895  0.41644972  0.42843443     0.84300
C233        C  0.48303380  0.64439496  0.50170370     0.84000
O234        O  0.40397459  0.51032636  0.47776887    -0.77200
C235        C  0.40728310  0.78171867  0.41353765     0.84800
O236        O  0.47153648  0.43405346  0.45069097    -0.77300
C237        C  0.49371457  0.70074140  0.36478329     0.84900
C238        C  0.40638931  0.49122668  0.35998163     0.85200
O239        O  0.43437002  0.48825801  0.35917628    -0.79700
C240        C  0.28660695  0.02787654  0.48805556     0.81500
N241        N  0.30176360  0.00442133  0.46118401    -0.76800
C242        C  0.33165887  0.00595674  0.46064608     0.84000
N243        N  0.34607156  0.02958380  0.98739119    -0.76700
C244        C  0.33165597  0.05159333  0.01451401     0.84100
N245        N  0.30183106  0.05018328  0.01484668    -0.78400
C246        C  0.50553861  0.74918433  0.33805407     0.81500
N247        N  0.49461281  0.74164729  0.30730889    -0.76800
C248        C  0.50329624  0.78993374  0.28310386     0.84000
N249        N  0.52291844  0.84557770  0.28991829    -0.76700
C250        C  0.53397408  0.85421238  0.32021882     0.84100
N251        N  0.52463635  0.80707204  0.34456136    -0.78400
O252        O  0.57773924  0.08275566  0.25628732    -0.77200
C253        C  0.66442656  0.04527026  0.28308528     0.83800
O254        O  0.55287141  0.95601017  0.35259697    -0.78300
O255        O  0.65392064  0.04795624  0.37351606    -0.79800
O256        O  0.61172460  0.28010797  0.31892227    -0.79600
O257        O  0.55856200  0.19253248  0.27461354    -0.78200
Zn258      Zn  0.59859554  0.02846095  0.29309913     1.58100
O259        O  0.64411315  0.23155400  0.35329345    -0.79600
Cd260      Cd  0.57871308  0.19717155  0.32068976     1.59700
Cd261      Cd  0.58030964  0.04454671  0.36809640     1.59600
O262        O  0.55231002  0.22646832  0.36105915    -0.79600
O263        O  0.59719077  0.09631280  0.32954216    -1.90100
Cd264      Cd  0.63768657  0.12115134  0.34002415     1.59900
O265        O  0.56026914  0.13052667  0.39630704    -0.79600
O266        O  0.66339032  0.10446491  0.30061392    -0.78200
C267        C  0.55442032  0.91818852  0.32610363     0.84300
C268        C  0.56212991  0.14277321  0.25219092     0.84000
O269        O  0.64207483  0.00171647  0.27998817    -0.77200
C270        C  0.63518445  0.28635208  0.33566325     0.84800
O271        O  0.57227115  0.93661989  0.30327234    -0.77300
C272        C  0.55037722  0.19742768  0.38964937     0.84900
C273        C  0.64209273  0.99886352  0.39202795     0.85200
O274        O  0.61424902  0.99112231  0.39345412    -0.79700
C275        C  0.76124642  0.51955422  0.25891816     0.81500
N276        N  0.74820673  0.54209479  0.23058828    -0.76800
C277        C  0.71843444  0.54487762  0.22833955     0.84000
N278        N  0.70210757  0.52315176  0.25404947    -0.76700
C279        C  0.71412709  0.49879927  0.28205092     0.84100
N280        N  0.74396828  0.49638103  0.28441265    -0.78400
C281        C  0.64370638  0.41860582  0.31471269     0.24900
C282        C  0.65408117  0.35467262  0.33182187    -0.23200
C283        C  0.68413321  0.35180260  0.34033473     0.19800
C284        C  0.70397708  0.40471857  0.32726351     0.24800
C285        C  0.69400935  0.46198826  0.30597875    -0.23200
C286        C  0.66334545  0.47238806  0.30248039     0.19700
F287        F  0.65227850  0.53106798  0.28463978    -0.13100
F288        F  0.61474799  0.42640214  0.30759764    -0.15500
F289        F  0.73306923  0.39526427  0.33310320    -0.15500
F290        F  0.69493997  0.29383413  0.35875856    -0.13100
C291        C  0.33794048  0.89765649  0.42184673     0.24900
C292        C  0.34911280  0.96443032  0.43585191    -0.23200
C293        C  0.37954994  0.97835612  0.43355228     0.19800
C294        C  0.39876234  0.92076530  0.42340970     0.24800
C295        C  0.38777716  0.84939192  0.41436425    -0.23200
C296        C  0.35715177  0.84046227  0.41117123     0.19700
F297        F  0.34561117  0.77303825  0.40151285    -0.13100
F298        F  0.30870434  0.88309570  0.42224345    -0.15500
F299        F  0.42815609  0.93290507  0.42473151    -0.15500
F300        F  0.39098534  0.04486290  0.44443366    -0.13100
C301        C  0.38265605  0.37839402  0.28690145     0.24900
C302        C  0.35182468  0.38373803  0.29014816    -0.23200
C303        C  0.33999645  0.40417563  0.32046747     0.19800
C304        C  0.35829363  0.43292067  0.34457958     0.24800
C305        C  0.38867013  0.44146772  0.33874574    -0.23200
C306        C  0.40095167  0.40804574  0.31082776     0.19700
F307        F  0.43032911  0.41032340  0.30513359    -0.13100
F308        F  0.39505786  0.35222385  0.25900183    -0.15500
F309        F  0.34588161  0.45737125  0.37274408    -0.15500
F310        F  0.31054057  0.40473579  0.32565864    -0.13100
C311        C  0.35598622  0.00150379  0.09841764     0.24900
C312        C  0.38677681  0.00535807  0.09427416    -0.23200
C313        C  0.39797761  0.04679253  0.06769062     0.19800
C314        C  0.37907610  0.07236008  0.04324297     0.24800
C315        C  0.34879297  0.05627373  0.04486101    -0.23200
C316        C  0.33720511  0.02599366  0.07379382     0.19700
F317        F  0.30807571  0.01133487  0.07688315    -0.13100
F318        F  0.34386088  0.96810257  0.12507264    -0.15500
F319        F  0.39074569  0.10668277  0.01656008    -0.15500
F320        F  0.42730257  0.05762647  0.06397375    -0.13100
C321        C  0.35842822  0.61996203  0.16438323     0.24900
C322        C  0.38890901  0.60513687  0.16464548    -0.23200
C323        C  0.39885368  0.53052174  0.17005000     0.19800
C324        C  0.37900870  0.47387810  0.17924451     0.24800
C325        C  0.34906582  0.49183834  0.18416505    -0.23200
C326        C  0.33862441  0.56367804  0.17417723     0.19700
F327        F  0.30991895  0.58303223  0.17796205    -0.13100
F328        F  0.34795590  0.69139233  0.15859040    -0.15500
F329        F  0.38955759  0.40346206  0.18676735    -0.15500
F330        F  0.42796482  0.51372265  0.16856711    -0.13100
C331        C  0.71117132  0.92569175  0.43208898     0.24900
C332        C  0.69954386  0.89576228  0.46106971    -0.23200
C333        C  0.66908093  0.88229106  0.46310593     0.19800
C334        C  0.65021033  0.91109434  0.43942615     0.24800
C335        C  0.66158730  0.95219785  0.41290837    -0.23200
C336        C  0.69234077  0.95373437  0.40817448     0.19700
F337        F  0.70440444  0.98727244  0.38151168    -0.13100
F338        F  0.74052252  0.93597425  0.42828668    -0.15500
F339        F  0.62080337  0.90439478  0.44409643    -0.15500
F340        F  0.65722283  0.84837448  0.48978127    -0.13100
C341        C  0.69383499  0.48993752  0.14608827     0.24900
C342        C  0.66315413  0.49768719  0.15089498    -0.23200
C343        C  0.65307789  0.54601075  0.17573605     0.19800
C344        C  0.67282134  0.57489379  0.19833607     0.24800
C345        C  0.70269846  0.55346591  0.19723002    -0.23200
C346        C  0.71346127  0.51708050  0.16932413     0.19700
F347        F  0.74237867  0.49905913  0.16645910    -0.13100
F348        F  0.70490840  0.45029510  0.12051028    -0.15500
F349        F  0.66212500  0.61567153  0.22378037    -0.15500
F350        F  0.62397281  0.56015801  0.17997327    -0.13100
C351        C  0.66650040  0.96376183  0.07143737     0.24900
C352        C  0.69668597  0.98204743  0.07044452    -0.23200
C353        C  0.70588536  0.04978173  0.08518912     0.19800
C354        C  0.68508156  0.10407487  0.09497339     0.24800
C355        C  0.65480347  0.09163338  0.08972192    -0.23200
C356        C  0.64567824  0.01888826  0.08015913     0.19700
F357        F  0.61669722  0.00286231  0.07697206    -0.13100
F358        F  0.65694741  0.89550568  0.06026614    -0.15500
F359        F  0.69492263  0.17221772  0.10592339    -0.15500
F360        F  0.73474513  0.06822892  0.58619508    -0.13100
C361        C  0.30980689  0.60518679  0.01088837     0.24900
C362        C  0.29156159  0.54763479  0.49892592    -0.23200
C363        C  0.30457239  0.48264013  0.48479980     0.19800
C364        C  0.33504670  0.47835997  0.48027658     0.24800
C365        C  0.35301245  0.53920954  0.48952716    -0.23200
C366        C  0.34030058  0.60151866  0.50590169     0.19700
F367        F  0.35714949  0.66131259  0.01466712    -0.13100
F368        F  0.29809161  0.66851447  0.02483010    -0.15500
F369        F  0.34663569  0.41838415  0.46378896    -0.15500
F370        F  0.28766268  0.42433263  0.47424640    -0.13100
C371        C  0.18620502  0.37074119  0.42526519     0.24900
C372        C  0.15560938  0.37549331  0.43105117    -0.23200
C373        C  0.14416375  0.44337236  0.44413840     0.19800
C374        C  0.16300325  0.50108530  0.45452394     0.24800
C375        C  0.19380898  0.49113886  0.45313218    -0.23200
C376        C  0.20506990  0.42792630  0.43619147     0.19700
F377        F  0.23439775  0.41728776  0.93274105    -0.13100
F378        F  0.19839877  0.30754024  0.41174795    -0.15500
F379        F  0.15100952  0.56433350  0.46827918    -0.15500
F380        F  0.11479942  0.45240382  0.44861148    -0.13100
C381        C  0.20717561  0.07365434  0.51001775     0.24900
C382        C  0.19170780  0.03014829  0.48734776    -0.23200
C383        C  0.20734233  0.98018695  0.46701032     0.19800
C384        C  0.23810125  0.97796432  0.46761242     0.24800
C385        C  0.25387523  0.02482109  0.48912053    -0.23200
C386        C  0.23789216  0.07069389  0.01129476     0.19700
F387        F  0.25190232  0.11680615  0.03254517    -0.13100
F388        F  0.19261012  0.12448165  0.02922096    -0.15500
F389        F  0.25231327  0.93198027  0.44620867    -0.15500
F390        F  0.19293835  0.93916092  0.44422348    -0.13100
C391        C  0.73829243  0.08862438  0.24899210     0.24900
C392        C  0.75533337  0.03050969  0.26325996    -0.23200
C393        C  0.74095614  0.96770014  0.27753472     0.19800
C394        C  0.71013467  0.96653424  0.27995537     0.24800
C395        C  0.69336152  0.02843159  0.26837971    -0.23200
C396        C  0.70769384  0.08772489  0.25169150     0.19700
F397        F  0.69210932  0.14871779  0.24068367    -0.13100
F398        F  0.75132466  0.15000904  0.23493546    -0.15500
F399        F  0.69694641  0.90871376  0.29637898    -0.15500
F400        F  0.75675320  0.90868281  0.28999256    -0.13100
C401        C  0.86202199  0.87630983  0.34757784     0.24900
C402        C  0.89217921  0.87956137  0.33911036    -0.23200
C403        C  0.90283489  0.94699120  0.32501529     0.19800
C404        C  0.88325392  0.00336180  0.31446643     0.24800
C405        C  0.85256136  0.99153124  0.31634753    -0.23200
C406        C  0.84232779  0.93164358  0.33600883     0.19700
F407        F  0.81314758  0.92214188  0.34141116    -0.13100
F408        F  0.85095303  0.81602791  0.36431412    -0.15500
F409        F  0.89440473  0.06597976  0.29943881    -0.15500
F410        F  0.93198116  0.95614912  0.31920055    -0.13100
C411        C  0.84163997  0.57428841  0.24694808     0.24900
C412        C  0.85533705  0.53425883  0.27229314    -0.23200
C413        C  0.83854021  0.48405761  0.29135944     0.19800
C414        C  0.80825921  0.47674708  0.28625166     0.24800
C415        C  0.79400921  0.51982447  0.26187203    -0.23200
C416        C  0.81140477  0.56658742  0.24147549     0.19700
F417        F  0.79897589  0.60925263  0.21758999    -0.13100
F418        F  0.85724496  0.62475384  0.22879415    -0.15500
F419        F  0.79283691  0.42940704  0.30605289    -0.15500
F420        F  0.85103679  0.44694590  0.31684384    -0.13100
C421        C  0.31124830  0.87636748  0.25986148     0.24900
C422        C  0.29565123  0.93520636  0.24406675    -0.23200
C423        C  0.31151917  0.99187177  0.22728611     0.19800
C424        C  0.34217656  0.98676646  0.22448584     0.24800
C425        C  0.35736365  0.92442892  0.23799094    -0.23200
C426        C  0.34176308  0.87065304  0.25652455     0.19700
F427        F  0.35589372  0.80911092  0.26924807    -0.13100
F428        F  0.29677557  0.82061819  0.27627232    -0.15500
F429        F  0.35665815  0.03845526  0.20580384    -0.15500
F430        F  0.29729748  0.05086690  0.21269642    -0.13100
C431        C  0.15191216  0.92670172  0.32412751     0.24900
C432        C  0.16322316  0.96917026  0.35006309    -0.23200
C433        C  0.19394590  0.96996467  0.35475664     0.19800
C434        C  0.21285987  0.94036806  0.33110186     0.24800
C435        C  0.20132112  0.90940923  0.30249728    -0.23200
C436        C  0.17083595  0.89646852  0.30073349     0.19700
F437        F  0.15903335  0.86165643  0.27447349    -0.13100
F438        F  0.12252175  0.91969074  0.31971247    -0.15500
F439        F  0.24222862  0.94998690  0.33468497    -0.15500
F440        F  0.20591108  0.00405872  0.38108198    -0.13100
C441        C  0.16917667  0.60417842  0.05896656     0.24900
C442        C  0.19958601  0.58902189  0.05968698    -0.23200
C443        C  0.21109783  0.54902103  0.08637798     0.19800
C444        C  0.19219370  0.51154736  0.10788151     0.24800
C445        C  0.16145461  0.51401507  0.10308100    -0.23200
C446        C  0.15016194  0.56574696  0.08005198     0.19700
F447        F  0.12077597  0.57465874  0.07600664    -0.13100
F448        F  0.15757967  0.64793727  0.03489397    -0.15500
F449        F  0.20428090  0.46814056  0.13177033    -0.15500
F450        F  0.24046589  0.53725456  0.08927177    -0.13100
C451        C  0.14842789  0.02885086  0.18133334     0.24900
C452        C  0.15756792  0.10137852  0.17116320    -0.23200
C453        C  0.18797211  0.11482953  0.16714558     0.19800
C454        C  0.20866711  0.06101810  0.17780069     0.24800
C455        C  0.19927143  0.99304577  0.19255760    -0.23200
C456        C  0.16914375  0.97448628  0.19121496     0.19700
F457        F  0.15946767  0.90643710  0.20282073    -0.13100
F458        F  0.11941372  0.01223503  0.18373681    -0.15500
F459        F  0.23755267  0.07976689  0.17728711    -0.15500
F460        F  0.19784294  0.18348766  0.15647958    -0.13100
C461        C  0.20945807  0.35858100  0.25222917     0.24900
C462        C  0.19328210  0.41498829  0.23567685    -0.23200
C463        C  0.20828859  0.47703150  0.22182414     0.19800
C464        C  0.23906301  0.48006689  0.22278782     0.24800
C465        C  0.25536169  0.42134458  0.23789010    -0.23200
C466        C  0.24011769  0.36206547  0.25364385     0.19700
F467        F  0.25494139  0.30404580  0.26823536    -0.13100
F468        F  0.19560759  0.29686949  0.26499032    -0.15500
F469        F  0.25290908  0.53931906  0.20806386    -0.15500
F470        F  0.19340288  0.53074719  0.20457505    -0.13100
C471        C  0.73547303  0.36053838  0.00199720     0.24900
C472        C  0.74909146  0.42557582  0.01481270    -0.23200
C473        C  0.73140035  0.48491607  0.02714641     0.19800
C474        C  0.70067177  0.47735491  0.02809781     0.24800
C475        C  0.68735910  0.40991735  0.01717102    -0.23200
C476        C  0.70503721  0.35273457  0.00326840     0.19700
F477        F  0.69288569  0.28671593  0.99277381    -0.13100
F478        F  0.75179671  0.30189834  0.99006961    -0.15500
F479        F  0.68419146  0.53313495  0.04204552    -0.15500
F480        F  0.74382552  0.54961607  0.03857164    -0.13100
C481        C  0.87159381  0.38289952  0.45531180     0.24900
C482        C  0.84173584  0.40379527  0.45461831    -0.23200
C483        C  0.83124957  0.44731351  0.42848887     0.19800
C484        C  0.85100939  0.48071239  0.40686276     0.24800
C485        C  0.88164936  0.47055243  0.41093565    -0.23200
C486        C  0.89154372  0.41686596  0.43392385     0.19700
F487        F  0.92059151  0.40154205  0.43751814    -0.13100
F488        F  0.88189620  0.33691086  0.47935151    -0.15500
F489        F  0.83997618  0.52794909  0.38365643    -0.15500
F490        F  0.80239426  0.46668462  0.42643467    -0.13100
C491        C  0.83763195  0.05039743  0.17792299     0.24900
C492        C  0.84912214  0.07889881  0.20703290    -0.23200
C493        C  0.87978621  0.08833427  0.20942275     0.19800
C494        C  0.89853160  0.05287841  0.18724742     0.24800
C495        C  0.88681394  0.01104255  0.16138595    -0.23200
C496        C  0.85640580  0.01661422  0.15518331     0.19700
F497        F  0.84451183  0.98483735  0.12828107    -0.13100
F498        F  0.80820908  0.04726628  0.17299736    -0.15500
F499        F  0.92787138  0.05378212  0.19296415    -0.15500
F500        F  0.89172799  0.12355586  0.23548717    -0.13100
C501        C  0.83684015  0.56136147  0.07864290     0.24900
C502        C  0.84641019  0.49516310  0.06265350    -0.23200
C503        C  0.87678463  0.47767864  0.06276460     0.19800
C504        C  0.89727231  0.53089615  0.07354088     0.24800
C505        C  0.88786445  0.60135410  0.08588739    -0.23200
C506        C  0.85737758  0.61373332  0.09041637     0.19700
F507        F  0.84721732  0.68014268  0.10315070    -0.13100
F508        F  0.80782162  0.57941462  0.57979462    -0.15500
F509        F  0.92634018  0.51516806  0.07005689    -0.15500
F510        F  0.88692544  0.41166634  0.04956285    -0.13100
C511        C  0.83986602  0.86826541  0.00527825     0.24900
C512        C  0.85521952  0.92412690  0.02257324    -0.23200
C513        C  0.83965220  0.98653438  0.03546410     0.19800
C514        C  0.80891994  0.98981283  0.03323787     0.24800
C515        C  0.79341343  0.93103565  0.01776655    -0.23200
C516        C  0.80932821  0.87209934  0.00254729     0.19700
F517        F  0.79516650  0.81442380  0.98738572    -0.13100
F518        F  0.85427648  0.80624236  0.99346441    -0.15500
F519        F  0.79428940  0.04919550  0.54705023    -0.15500
F520        F  0.85387380  0.04009116  0.05307915    -0.13100
C521        C  0.03969697  0.20333783  0.59247347     0.81500
N522        N  0.05095314  0.21218280  0.56186221    -0.76800
C523        C  0.04308294  0.16385843  0.53765451     0.84000
N524        N  0.02392547  0.10688630  0.54416199    -0.76700
C525        C  0.01252143  0.09685858  0.57430887     0.84100
N526        N  0.02102989  0.14405777  0.59879422    -0.78400
O527        O  0.97176199  0.86788554  0.51030241    -0.77200
C528        C  0.88400031  0.90401538  0.53623727     0.83800
O529        O  0.99492295  0.99110290  0.60563493    -0.78300
O530        O  0.89298356  0.90811524  0.62514904    -0.79800
O531        O  0.93211528  0.66889958  0.57202738    -0.79600
O532        O  0.98862259  0.75468739  0.52783841    -0.78200
Zn533      Zn  0.94964678  0.92043849  0.54644022     1.55700
O534        O  0.90174019  0.72022710  0.60810942    -0.79600
Cd535      Cd  0.96689434  0.74886324  0.57372899     1.59700
Cd536      Cd  0.96683986  0.90358988  0.62051069     1.59600
O537        O  0.99221435  0.71962602  0.61487694    -0.79600
O538        O  0.94999576  0.85153244  0.58251889    -1.90100
Cd539      Cd  0.90923183  0.82966107  0.59359815     1.59900
O540        O  0.98561298  0.81773670  0.64926946    -0.79600
O541        O  0.88455357  0.84408262  0.55351344    -0.78200
C542        C  0.99273873  0.03126599  0.57977292     0.84300
C543        C  0.98677378  0.80702899  0.50599587     0.84000
O544        O  0.90660965  0.94668083  0.53309719    -0.77200
C545        C  0.90878767  0.66545912  0.58953835     0.84800
O546        O  0.97485797  0.01368202  0.55711180    -0.77300
C547        C  0.99463114  0.74990959  0.64309736     0.84900
C548        C  0.90547715  0.95794446  0.64249354     0.85200
O549        O  0.93337535  0.96169338  0.64434495    -0.79700
C550        C  0.78153625  0.43014698  0.51406284     0.81500
N551        N  0.79726368  0.45696401  0.53989689    -0.76800
C552        C  0.82728907  0.45594253  0.53868261     0.84000
N553        N  0.84074727  0.43102870  0.01155313    -0.76700
C554        C  0.82562540  0.40701572  0.98557907     0.84100
N555        N  0.79592717  0.40711235  0.98681714    -0.78400
C556        C  0.00652918  0.70319268  0.67011450     0.81500
N557        N  0.02528874  0.64389941  0.66400469    -0.76800
C558        C  0.03449986  0.59785236  0.68871312     0.84000
N559        N  0.02368129  0.60914049  0.71909843    -0.76700
C560        C  0.00440298  0.66653442  0.72548121     0.84100
N561        N  0.99584268  0.71356066  0.70086620    -0.78400
O562        O  0.07625215  0.36825614  0.75223486    -0.77200
C563        C  0.16335598  0.39674298  0.72440845     0.83800
O564        O  0.05203937  0.49298467  0.65691693    -0.78300
O565        O  0.15371898  0.41003423  0.63893701    -0.79800
O566        O  0.11395028  0.16873712  0.68821215    -0.79600
O567        O  0.05832251  0.25678997  0.73480728    -0.78200
Zn568      Zn  0.09789237  0.41999814  0.71535610     1.55700
O569        O  0.14267993  0.22177720  0.65096142    -0.79600
Cd570      Cd  0.07920039  0.25009491  0.68830465     1.59700
Cd571      Cd  0.07987198  0.40518162  0.64085693     1.59600
O572        O  0.05313228  0.22188646  0.64782670    -0.79600
O573        O  0.09608699  0.35225607  0.67919162    -1.90100
Cd574      Cd  0.13660849  0.32869860  0.66846708     1.59900
O575        O  0.06074401  0.31838816  0.61258304    -0.79600
O576        O  0.16066666  0.33425087  0.70944139    -0.78200
C577        C  0.05433070  0.53210967  0.68297015     0.84300
C578        C  0.06077151  0.30851716  0.75667806     0.84000
O579        O  0.14176154  0.44367040  0.72672791    -0.77200
C580        C  0.13640472  0.16585273  0.66929957     0.84800
O581        O  0.07254698  0.51392308  0.70533473    -0.77300
C582        C  0.05123570  0.25117160  0.61926152     0.84900
C583        C  0.14190716  0.45997619  0.62077108     0.85200
O584        O  0.11404954  0.46327419  0.61729107    -0.79700
C585        C  0.26302217  0.93480478  0.74414154     0.81500
N586        N  0.24761021  0.95749841  0.71730973    -0.76800
C587        C  0.21769092  0.95504362  0.71753702     0.84000
N588        N  0.20377669  0.93254392  0.74487484    -0.76700
C589        C  0.21844064  0.91231426  0.77195185     0.84100
N590        N  0.24825206  0.91374509  0.77158581    -0.78400
C591        C  0.04105720  0.26630897  0.84271977     0.81500
N592        N  0.05219477  0.25692774  0.81206256    -0.76800
C593        C  0.04404036  0.30487826  0.78756647     0.84000
N594        N  0.02469127  0.36213807  0.79395779    -0.76700
C595        C  0.01335848  0.37252089  0.82421124     0.84100
N596        N  0.02216114  0.32548122  0.84881109    -0.78400
O597        O  0.90727104  0.52045076  0.78247941    -0.77200
C598        C  0.98745793  0.66223797  0.75608074     0.83800
O599        O  0.99349176  0.47486305  0.85637965    -0.78300
O600        O  0.99376570  0.74538491  0.86477881    -0.79800
O601        O  0.90083592  0.75142972  0.85486106    -0.79600
O602        O  0.88322053  0.62213003  0.80107061    -0.78200
Zn603      Zn  0.94994922  0.54941643  0.79597213     1.55700
O604        O  0.93492490  0.80517696  0.82389945    -0.79600
Cd605      Cd  0.90838022  0.64211211  0.84079155     1.59700
Cd606      Cd  0.96526353  0.56411189  0.87119851     1.59600
O607        O  0.89177542  0.56919752  0.87378131    -0.79600
O608        O  0.94957277  0.61771628  0.83224087    -1.90100
Cd609      Cd  0.96786006  0.71921989  0.82402406     1.59900
O610        O  0.93030847  0.50980630  0.89506310    -0.79600
O611        O  0.98959466  0.71349586  0.77814694    -0.78200
C612        C  0.99294645  0.43758522  0.82969549     0.84300
C613        C  0.88377081  0.56055426  0.78501556     0.84000
O614        O  0.97196469  0.60241713  0.75999577    -0.77200
C615        C  0.91082913  0.80933876  0.84006058     0.84800
O616        O  0.97596377  0.45717442  0.80641749    -0.77300
C617        C  0.90255208  0.51863117  0.89231354     0.84900
C618        C  0.99490902  0.71634044  0.89340875     0.85200
O619        O  0.98460096  0.64989158  0.89994641    -0.79700
C620        C  0.78785990  0.03805208  0.76394005     0.81500
N621        N  0.80360491  0.01763720  0.79086275    -0.76800
C622        C  0.83331167  0.02765592  0.79139052     0.84000
N623        N  0.84665107  0.05558273  0.76460203    -0.76700
C624        C  0.83179086  0.07354077  0.73735955     0.84100
N625        N  0.80220558  0.06449535  0.73709710    -0.78400
C626        C  0.00661037  0.76375027  0.92028843     0.81500
N627        N  0.02514284  0.82332100  0.91387337    -0.76800
C628        C  0.03372589  0.87060653  0.93828675     0.84000
N629        N  0.02257109  0.86003527  0.96857146    -0.76700
C630        C  0.00360577  0.80258842  0.97526976     0.84100
N631        N  0.99562892  0.75441063  0.95102339    -0.78400
O632        O  0.13975146  0.01406329  0.97846820    -0.77200
C633        C  0.05997254  0.15921497  0.00713853     0.83800
O634        O  0.05291204  0.97448934  0.90628450    -0.78300
O635        O  0.05424784  0.24776742  0.89824113    -0.79800
O636        O  0.14630627  0.25140096  0.91037965    -0.79600
O637        O  0.16177259  0.12087228  0.96290115    -0.78200
Zn638      Zn  0.09691810  0.04606515  0.96665087     1.55700
O639        O  0.11236865  0.30127276  0.94275282    -0.79600
Cd640      Cd  0.13822603  0.14008617  0.92212521     1.59700
Cd641      Cd  0.08098540  0.06430175  0.89216012     1.59600
O642        O  0.15529276  0.06609733  0.88897501    -0.79600
O643        O  0.09705100  0.11619322  0.93082462    -1.90100
Cd644      Cd  0.07915818  0.21782683  0.93957031     1.59900
O645        O  0.11578652  0.01086279  0.86825658    -0.79600
O646        O  0.05720691  0.21018214  0.98488732    -0.78200
C647        C  0.05377497  0.93606599  0.93277939     0.84300
C648        C  0.16253239  0.05644404  0.97685689     0.84000
O649        O  0.07570601  0.09933519  0.00331354    -0.77200
C650        C  0.13670091  0.30676508  0.92721986     0.84800
O651        O  0.07074704  0.95500453  0.95603455    -0.77300
C652        C  0.14363629  0.01731418  0.87036532     0.84900
C653        C  0.05256995  0.21852695  0.86976207     0.85200
O654        O  0.06204923  0.15109620  0.86346425    -0.79700
C655        C  0.25907140  0.55607357  0.99972787     0.81500
N656        N  0.24256052  0.53056976  0.97442313    -0.76800
C657        C  0.21271950  0.53482701  0.97561675     0.84000
N658        N  0.19993778  0.56302976  0.50271816    -0.76700
C659        C  0.21565864  0.58627802  0.52855452     0.84100
N660        N  0.24548875  0.58242175  0.52713500    -0.78400
C661        C  0.50416096  0.69341965  0.58674140     0.81500
N662        N  0.49238619  0.70076066  0.55627401    -0.76800
C663        C  0.49953880  0.64966199  0.53254017     0.84000
N664        N  0.51839412  0.59192002  0.53951153    -0.76700
C665        C  0.53021471  0.58370071  0.56946501     0.84100
N666        N  0.52255723  0.63356436  0.59333649    -0.78400
O667        O  0.63596364  0.43639955  0.52788160    -0.77200
C668        C  0.55713974  0.29095053  0.50178309     0.83800
O669        O  0.55041431  0.48318002  0.60228928    -0.78300
O670        O  0.55204943  0.21383383  0.61168148    -0.79800
O671        O  0.64110615  0.21650897  0.60491598    -0.79600
O672        O  0.65487536  0.32459031  0.54175469    -0.78200
Zn673      Zn  0.59303207  0.40795114  0.54076348     1.55700
O674        O  0.61131419  0.15738244  0.57114105    -0.79600
Cd675      Cd  0.63405591  0.32063509  0.58499879     1.59700
Cd676      Cd  0.57923054  0.39568420  0.61683278     1.59600
O677        O  0.65294242  0.40220874  0.61230712    -0.79600
O678        O  0.59315214  0.34234873  0.57756538    -1.90100
Cd679      Cd  0.57691677  0.23913656  0.57019023     1.59900
O680        O  0.61473232  0.45157046  0.63848119    -0.79600
O681        O  0.55548038  0.24029599  0.52433582    -0.78200
C682        C  0.55052841  0.51917415  0.57515209     0.84300
C683        C  0.65755451  0.38934555  0.52835492     0.84000
O684        O  0.57171504  0.35242084  0.50520720    -0.77200
C685        C  0.63409082  0.15731110  0.58931617     0.84800
O686        O  0.56702833  0.49888771  0.55147097    -0.77300
C687        C  0.64232972  0.44893307  0.63266248     0.84900
C688        C  0.55191970  0.24209977  0.64038224     0.85200
O689        O  0.56192483  0.30876631  0.64663405    -0.79700
C690        C  0.76090563  0.92870724  0.51819520     0.81500
N691        N  0.74534228  0.95060514  0.54508928    -0.76800
C692        C  0.71548560  0.94489932  0.54542431     0.84000
N693        N  0.70175874  0.91989406  0.01874899    -0.76700
C694        C  0.71654573  0.90043479  0.99159131     0.84100
N695        N  0.74627547  0.90499424  0.99142349    -0.78400
C696        C  0.54141641  0.19313953  0.66732627     0.81500
N697        N  0.55327545  0.19940685  0.69768393    -0.76800
C698        C  0.54591883  0.14831827  0.72139904     0.84000
N699        N  0.52687594  0.09161543  0.71455462    -0.76700
C700        C  0.51509529  0.08462008  0.68460312     0.84100
N701        N  0.52285749  0.13442986  0.66076832    -0.78400
O702        O  0.40869577  0.94435133  0.72625662    -0.77200
C703        C  0.48676099  0.79666929  0.75231869     0.83800
O704        O  0.49590448  0.98465558  0.65188792    -0.78300
O705        O  0.49261270  0.71534351  0.64241292    -0.79800
O706        O  0.40289229  0.72787934  0.64783706    -0.79600
O707        O  0.38634819  0.84162471  0.70736346    -0.78200
Zn708      Zn  0.45118563  0.91397162  0.71235513     1.55700
O709        O  0.43231281  0.66810066  0.68256372    -0.79600
Cd710      Cd  0.41025873  0.83273566  0.66606203     1.59700
Cd711      Cd  0.46734452  0.89970854  0.63603305     1.59600
O712        O  0.39425158  0.91352687  0.63564045    -0.79600
O713        O  0.45124117  0.84927639  0.67530556    -1.90100
Cd714      Cd  0.46747101  0.74563951  0.68351584     1.59900
O715        O  0.43405226  0.95827292  0.61116529    -0.79600
O716        O  0.48840033  0.74576654  0.72998506    -0.78200
C717        C  0.49479233  0.02146851  0.67866877     0.84300
C718        C  0.38596562  0.90203280  0.72411831     0.84000
O719        O  0.47236667  0.85861402  0.74836460    -0.77200
C720        C  0.40965015  0.66913242  0.66422731     0.84800
O721        O  0.47730256  0.00330836  0.70175663    -0.77300
C722        C  0.40622076  0.95773451  0.61511300     0.84900
C723        C  0.49381847  0.74344706  0.61359077     0.85200
O724        O  0.48489345  0.81132265  0.60704546    -0.79700
C725        C  0.28790379  0.41993480  0.73615503     0.81500
N726        N  0.30379983  0.39275832  0.76173536    -0.76800
C727        C  0.33365140  0.39169082  0.76048373     0.84000
N728        N  0.34719921  0.41837073  0.73358157    -0.76700
C729        C  0.33208031  0.44682319  0.70814047     0.84100
N730        N  0.30222666  0.44877893  0.70966295    -0.78400
C731        C  0.53819668  0.24493882  0.91640972     0.81500
N732        N  0.51919522  0.30370530  0.90991846    -0.76800
C733        C  0.50988631  0.35056459  0.93430785     0.84000
N734        N  0.52085815  0.34079098  0.96458181    -0.76700
C735        C  0.54040058  0.28441251  0.97133053     0.84100
N736        N  0.54908155  0.23641124  0.94714290    -0.78400
O737        O  0.46938386  0.58201252  0.99693639    -0.77200
C738        C  0.38094340  0.55056209  0.97223839     0.83800
O739        O  0.49321217  0.45690816  0.90271252    -0.78300
O740        O  0.39284872  0.53820016  0.87820646    -0.79800
O741        O  0.42964998  0.77848554  0.93219469    -0.79600
O742        O  0.48402977  0.69716730  0.98007446    -0.78200
Zn743      Zn  0.44685203  0.52926557  0.96139481     1.55700
O744        O  0.39981633  0.72502331  0.89641685    -0.79600
Cd745      Cd  0.46406974  0.69855363  0.93326508     1.59700
Cd746      Cd  0.46595292  0.54524396  0.88620148     1.59600
O747        O  0.49061770  0.72978218  0.89321195    -0.79600
O748        O  0.44742309  0.59570871  0.92420952    -1.90100
Cd749      Cd  0.40692281  0.61550662  0.91131644     1.59900
O750        O  0.48526678  0.63278303  0.85828425    -0.79600
O751        O  0.38034450  0.60097380  0.95011886    -0.78200
C752        C  0.49013497  0.41644664  0.92845223     0.84300
C753        C  0.48300622  0.64437366  0.00173972     0.84000
O754        O  0.40395158  0.51019548  0.97782224    -0.77200
C755        C  0.40721665  0.78169218  0.91360060     0.84800
O756        O  0.47154348  0.43403802  0.95072298    -0.77300
C757        C  0.49366074  0.70074393  0.86481815     0.84900
C758        C  0.40633506  0.49129137  0.86000065     0.85200
O759        O  0.43431580  0.48831088  0.85920074    -0.79700
C760        C  0.28660934  0.02798039  0.98813372     0.81500
N761        N  0.30174137  0.00448087  0.96125303    -0.76800
C762        C  0.33163501  0.00603281  0.96067790     0.84000
N763        N  0.34607150  0.02944690  0.48738624    -0.76700
C764        C  0.33162884  0.05140909  0.51449893     0.84100
N765        N  0.30180526  0.05001297  0.51479362    -0.78400
C766        C  0.50549439  0.74915482  0.83808199     0.81500
N767        N  0.49458171  0.74157097  0.80733340    -0.76800
C768        C  0.50328774  0.78978828  0.78311324     0.84000
N769        N  0.52292015  0.84542075  0.78991809    -0.76700
C770        C  0.53396372  0.85410228  0.82022342     0.84100
N771        N  0.52460211  0.80702630  0.84457811    -0.78400
O772        O  0.57773748  0.08258664  0.75630941    -0.77200
C773        C  0.66449471  0.04512831  0.78316566     0.83800
O774        O  0.55284658  0.95593886  0.85258850    -0.78300
O775        O  0.65388785  0.04775659  0.87367031    -0.79800
O776        O  0.61178335  0.27992346  0.81898349    -0.79600
O777        O  0.55860064  0.19241824  0.77462236    -0.78200
Zn778      Zn  0.59862470  0.02831507  0.79311921     1.58100
O779        O  0.64413228  0.23133963  0.85339738    -0.79600
Cd780      Cd  0.57875145  0.19703689  0.82070961     1.59700
Cd781      Cd  0.58028807  0.04443518  0.86812512     1.59600
O782        O  0.55233381  0.22642159  0.86106094    -0.79600
O783        O  0.59721597  0.09615239  0.82957814    -1.90100
Cd784      Cd  0.63770762  0.12092993  0.84013430     1.59900
O785        O  0.56024728  0.13047251  0.89631491    -0.79600
O786        O  0.66348088  0.10417327  0.80078639    -0.78200
C787        C  0.55441708  0.91807260  0.82610709     0.84300
C788        C  0.56213875  0.14262270  0.75220763     0.84000
O789        O  0.64212245  0.00166984  0.77998512    -0.77200
C790        C  0.63522316  0.28615008  0.83576153     0.84800
O791        O  0.57229701  0.93644557  0.80329264    -0.77300
C792        C  0.55037938  0.19739572  0.88965183     0.84900
C793        C  0.64203130  0.99868296  0.89216853     0.85200
O794        O  0.61418480  0.99095675  0.89354667    -0.79700
C795        C  0.76124765  0.51933140  0.75900710     0.81500
N796        N  0.74818730  0.54178413  0.73067523    -0.76800
C797        C  0.71841232  0.54451200  0.72844587     0.84000
N798        N  0.70210577  0.52282479  0.75417702    -0.76700
C799        C  0.71414608  0.49857034  0.78218213     0.84100
N800        N  0.74398835  0.49619969  0.78452452    -0.78400
C801        C  0.64374358  0.41846628  0.81489272     0.24900
C802        C  0.65412049  0.35447818  0.83196150    -0.23200
C803        C  0.68417384  0.35157724  0.84046773     0.19800
C804        C  0.70401861  0.40450382  0.82740467     0.24800
C805        C  0.69404651  0.46181227  0.80614142    -0.23200
C806        C  0.66338288  0.47226297  0.80267480     0.19700
F807        F  0.65231699  0.53099712  0.78486614    -0.13100
F808        F  0.61478241  0.42629973  0.80779862    -0.15500
F809        F  0.73311302  0.39501669  0.83322231    -0.15500
F810        F  0.69497930  0.29356841  0.85886964    -0.13100
C811        C  0.33788415  0.89767090  0.92190566     0.24900
C812        C  0.34906775  0.96446882  0.93587835    -0.23200
C813        C  0.37950357  0.97838653  0.93354826     0.19800
C814        C  0.39870821  0.92076601  0.92341943     0.24800
C815        C  0.38771475  0.84937344  0.91441443    -0.23200
C816        C  0.35708713  0.84044802  0.91124111     0.19700
F817        F  0.34553782  0.77300979  0.90161321    -0.13100
F818        F  0.30864730  0.88312148  0.92232562    -0.15500
F819        F  0.42810312  0.93290267  0.92471447    -0.15500
F820        F  0.39094704  0.04491878  0.94439119    -0.13100
C821        C  0.38260698  0.37863577  0.78686931     0.24900
C822        C  0.35177380  0.38389447  0.79013053    -0.23200
C823        C  0.33994853  0.40425126  0.82046101     0.19800
C824        C  0.35824439  0.43298400  0.84457765     0.24800
C825        C  0.38861768  0.44159286  0.83873890    -0.23200
C826        C  0.40089973  0.40828301  0.81079779     0.19700
F827        F  0.43027302  0.41066923  0.80508540    -0.13100
F828        F  0.39501244  0.35254332  0.75895831    -0.15500
F829        F  0.34583349  0.45735039  0.87275594    -0.15500
F830        F  0.31049455  0.40471635  0.82566625    -0.13100
C831        C  0.35589064  0.00098445  0.59838873     0.24900
C832        C  0.38668378  0.00502715  0.59430240    -0.23200
C833        C  0.39788828  0.04663290  0.56776835     0.19800
C834        C  0.37900138  0.07221996  0.54331092     0.24800
C835        C  0.34872846  0.05600402  0.54487212    -0.23200
C836        C  0.33712470  0.02552394  0.57375922     0.19700
F837        F  0.30800078  0.01072810  0.57678993    -0.13100
F838        F  0.34375303  0.96736059  0.62498601    -0.15500
F839        F  0.39067921  0.10671310  0.51667252    -0.15500
F840        F  0.42720903  0.05763630  0.56410891    -0.13100
C841        C  0.35842625  0.61973560  0.66426599     0.24900
C842        C  0.38890680  0.60488820  0.66460186    -0.23200
C843        C  0.39882893  0.53027117  0.67005169     0.19800
C844        C  0.37895784  0.47366641  0.67922136     0.24800
C845        C  0.34901245  0.49167989  0.68409651    -0.23200
C846        C  0.33859721  0.56349885  0.67405235     0.19700
F847        F  0.30988809  0.58288603  0.67777256    -0.13100
F848        F  0.34797131  0.69115217  0.65840570    -0.15500
F849        F  0.38948190  0.40324538  0.68677884    -0.15500
F850        F  0.42793930  0.51343284  0.66863838    -0.13100
C851        C  0.71107487  0.92532234  0.93225175     0.24900
C852        C  0.69944507  0.89564706  0.96127904    -0.23200
C853        C  0.66896611  0.88240298  0.96336075     0.19800
C854        C  0.65010305  0.91118378  0.93966702     0.24800
C855        C  0.66149771  0.95202745  0.91308755    -0.23200
C856        C  0.69224939  0.95333674  0.90832372     0.19700
F857        F  0.70432030  0.98660994  0.88160497    -0.13100
F858        F  0.74043406  0.93535257  0.92839947    -0.15500
F859        F  0.62069244  0.90473242  0.94437811    -0.15500
F860        F  0.65709143  0.84871544  0.99007970    -0.13100
C861        C  0.69378706  0.48977267  0.64615484     0.24900
C862        C  0.66310572  0.49748187  0.65096981    -0.23200
C863        C  0.65302625  0.54566290  0.67585867     0.19800
C864        C  0.67276806  0.57445603  0.69848007     0.24800
C865        C  0.70265042  0.55307836  0.69734924    -0.23200
C866        C  0.71341324  0.51681209  0.66941465     0.19700
F867        F  0.74233249  0.49882964  0.66653021    -0.13100
F868        F  0.70486106  0.45027513  0.62053645    -0.15500
F869        F  0.66206687  0.61511907  0.72395509    -0.15500
F870        F  0.62391950  0.55975199  0.68011752    -0.13100
C871        C  0.66647125  0.96390866  0.57120247     0.24900
C872        C  0.69665455  0.98222099  0.57022879    -0.23200
C873        C  0.70584470  0.04992435  0.58500751     0.19800
C874        C  0.68503402  0.10415300  0.59483519     0.24800
C875        C  0.65475669  0.09167741  0.58959864    -0.23200
C876        C  0.64564253  0.01896687  0.57997824     0.19700
F877        F  0.61666350  0.00291998  0.57678735    -0.13100
F878        F  0.65692514  0.89569582  0.55997713    -0.15500
F879        F  0.69486502  0.17227982  0.60581499    -0.15500
F880        F  0.73478966  0.06804596  0.08637684    -0.13100
C881        C  0.30985465  0.60545341  0.51086447     0.24900
C882        C  0.29150379  0.54750990  0.99884178    -0.23200
C883        C  0.30450958  0.48255970  0.98467204     0.19800
C884        C  0.33499017  0.47821088  0.98020854     0.24800
C885        C  0.35297011  0.53894543  0.98956207    -0.23200
C886        C  0.34026022  0.60117844  0.00598967     0.19700
F887        F  0.35717498  0.66177316  0.51446529    -0.13100
F888        F  0.29812988  0.66883299  0.52475371    -0.15500
F889        F  0.34657958  0.41829477  0.96368220    -0.15500
F890        F  0.28759376  0.42436057  0.97402440    -0.13100
C891        C  0.18613206  0.37072554  0.92515863     0.24900
C892        C  0.15553837  0.37547111  0.93095345    -0.23200
C893        C  0.14409254  0.44334821  0.94404192     0.19800
C894        C  0.16293310  0.50105979  0.95442751     0.24800
C895        C  0.19373945  0.49111265  0.95303220    -0.23200
C896        C  0.20499777  0.42790333  0.93608679     0.19700
F897        F  0.23447099  0.41732018  0.43284811    -0.13100
F898        F  0.19832447  0.30753205  0.91163329    -0.15500
F899        F  0.15093959  0.56430476  0.96818544    -0.15500
F900        F  0.11472816  0.45237513  0.94851857    -0.13100
C901        C  0.20718904  0.07401011  0.01003840     0.24900
C902        C  0.19171505  0.03035752  0.98742215    -0.23200
C903        C  0.20734077  0.98020290  0.96716382     0.19800
C904        C  0.23809826  0.97791970  0.96778496     0.24800
C905        C  0.25387923  0.02493513  0.98922345    -0.23200
C906        C  0.23787904  0.07038277  0.51125997     0.19700
F907        F  0.25187816  0.11635684  0.53257336    -0.13100
F908        F  0.19258873  0.12396532  0.52926915    -0.15500
F909        F  0.25230473  0.93170973  0.94646545    -0.15500
F910        F  0.19293407  0.93903646  0.94442514    -0.13100
C911        C  0.73832838  0.08867221  0.74900794     0.24900
C912        C  0.75540247  0.03059307  0.76325433    -0.23200
C913        C  0.74105554  0.96776000  0.77755047     0.19800
C914        C  0.71023558  0.96652169  0.78000132     0.24800
C915        C  0.69342830  0.02836547  0.76843359    -0.23200
C916        C  0.70773019  0.08770364  0.75174039     0.19700
F917        F  0.69211733  0.14867485  0.74076067    -0.13100
F918        F  0.75132862  0.15009183  0.73494274    -0.15500
F919        F  0.69708210  0.90868148  0.79644669    -0.15500
F920        F  0.75688141  0.90878992  0.79000448    -0.13100
C921        C  0.86210905  0.87630099  0.84746943     0.24900
C922        C  0.89226705  0.87950947  0.83900593    -0.23200
C923        C  0.90293494  0.94689661  0.82488422     0.19800
C924        C  0.88336531  0.00328531  0.81432653     0.24800
C925        C  0.85266866  0.99153042  0.81623525    -0.23200
C926        C  0.84242707  0.93166303  0.83590294     0.19700
F927        F  0.81324677  0.92221431  0.84132131    -0.13100
F928        F  0.85102537  0.81603332  0.86420293    -0.15500
F929        F  0.89453123  0.06585987  0.79928006    -0.15500
F930        F  0.93208233  0.95599884  0.81905742    -0.13100
C931        C  0.84163021  0.57412297  0.74696524     0.24900
C932        C  0.85534230  0.53418630  0.77232709    -0.23200
C933        C  0.83855970  0.48403439  0.79143119     0.19800
C934        C  0.80827817  0.47668157  0.78634429     0.24800
C935        C  0.79401224  0.51965651  0.76194339    -0.23200
C936        C  0.81139344  0.56636958  0.74151002     0.19700
F937        F  0.79894946  0.60893106  0.71760085    -0.13100
F938        F  0.85722260  0.62453630  0.72877145    -0.15500
F939        F  0.79287139  0.42940032  0.80618592    -0.15500
F940        F  0.85107240  0.44701019  0.81692871    -0.13100
C941        C  0.31120351  0.87600208  0.75982998     0.24900
C942        C  0.29561514  0.93484254  0.74402575    -0.23200
C943        C  0.31149033  0.99147205  0.72723176     0.19800
C944        C  0.34214686  0.98634602  0.72443887     0.24800
C945        C  0.35732691  0.92402228  0.73796403    -0.23200
C946        C  0.34171829  0.87026398  0.75649899     0.19700
F947        F  0.35584197  0.80872996  0.76923907    -0.13100
F948        F  0.29672242  0.82028167  0.77624982    -0.15500
F949        F  0.35663549  0.03800287  0.70574737    -0.15500
F950        F  0.29727704  0.05045699  0.71262475    -0.13100
C951        C  0.15189011  0.92678431  0.82410729     0.24900
C952        C  0.16322441  0.96914707  0.85006160    -0.23200
C953        C  0.19394703  0.96981737  0.85475876     0.19800
C954        C  0.21284559  0.94017581  0.83109632     0.24800
C955        C  0.20128878  0.90928417  0.80248607    -0.23200
C956        C  0.17079571  0.89647994  0.80071657     0.19700
F957        F  0.15896988  0.86174766  0.77444994    -0.13100
F958        F  0.12249605  0.91995253  0.81966804    -0.15500
F959        F  0.24222071  0.94966054  0.83468314    -0.15500
F960        F  0.20592702  0.00381351  0.88109933    -0.13100
C961        C  0.16922223  0.60411722  0.55906094     0.24900
C962        C  0.19963032  0.58894527  0.55980115    -0.23200
C963        C  0.21112107  0.54889161  0.58648864     0.19800
C964        C  0.19219860  0.51139409  0.60796615     0.24800
C965        C  0.16146314  0.51387221  0.60313573    -0.23200
C966        C  0.15018982  0.56564215  0.58011131     0.19700
F967        F  0.12080738  0.57455543  0.57603552    -0.13100
F968        F  0.15764477  0.64792241  0.53499201    -0.15500
F969        F  0.20426470  0.46796153  0.63185974    -0.15500
F970        F  0.24048631  0.53710865  0.58940253    -0.13100
C971        C  0.14839577  0.02868701  0.68132734     0.24900
C972        C  0.15752894  0.10126149  0.67120930    -0.23200
C973        C  0.18793361  0.11478310  0.66724620     0.19800
C974        C  0.20863132  0.06095231  0.67787239     0.24800
C975        C  0.19924129  0.99289130  0.69255622    -0.23200
C976        C  0.16911677  0.97430807  0.69118654     0.19700
F977        F  0.15944835  0.90620722  0.70274488    -0.13100
F978        F  0.11938324  0.01202804  0.68369770    -0.15500
F979        F  0.23751132  0.07976232  0.67741559    -0.15500
F980        F  0.19779869  0.18352045  0.65666782    -0.13100
C981        C  0.20940686  0.35857690  0.75222394     0.24900
C982        C  0.19321581  0.41497720  0.73568631    -0.23200
C983        C  0.20820547  0.47708130  0.72185794     0.19800
C984        C  0.23898084  0.48016393  0.72281841     0.24800
C985        C  0.25529371  0.42143600  0.73789675    -0.23200
C986        C  0.24006483  0.36211131  0.75363709     0.19700
F987        F  0.25490298  0.30409457  0.76821269    -0.13100
F988        F  0.19557309  0.29682530  0.76497227    -0.15500
F989        F  0.25281501  0.53946820  0.70811854    -0.15500
F990        F  0.19330354  0.53082023  0.70463913    -0.13100
C991        C  0.73543304  0.36040140  0.50197350     0.24900
C992        C  0.74905912  0.42545665  0.51476118    -0.23200
C993        C  0.73137439  0.48483627  0.52707268     0.19800
C994        C  0.70064469  0.47729157  0.52803618     0.24800
C995        C  0.68732448  0.40983330  0.51714240    -0.23200
C996        C  0.70499644  0.35261586  0.50325482     0.19700
F997        F  0.69283836  0.28658381  0.49278492    -0.13100
F998        F  0.75175069  0.30172956  0.49006447    -0.15500
F999        F  0.68417138  0.53311476  0.54196262    -0.15500
F1000       F  0.74380699  0.54956008  0.53846392    -0.13100
C1001       C  0.87164015  0.38307000  0.95539652     0.24900
C1002       C  0.84177766  0.40391461  0.95468503    -0.23200
C1003       C  0.83128243  0.44730645  0.92852161     0.19800
C1004       C  0.85103652  0.48064405  0.90687026     0.24800
C1005       C  0.88167774  0.47056008  0.91095794    -0.23200
C1006       C  0.89158327  0.41698800  0.93398861     0.19700
F1007       F  0.92063491  0.40174733  0.93760705    -0.13100
F1008       F  0.88195223  0.33719035  0.97946886    -0.15500
F1009       F  0.83999680  0.52774955  0.88362000    -0.15500
F1010       F  0.80242189  0.46661046  0.92644791    -0.13100
C1011       C  0.83766207  0.05076017  0.67787015     0.24900
C1012       C  0.84916364  0.07922975  0.70697975    -0.23200
C1013       C  0.87983271  0.08857585  0.70936542     0.19800
C1014       C  0.89856097  0.05299060  0.68720992     0.24800
C1015       C  0.88682248  0.01114604  0.66136248    -0.23200
C1016       C  0.85641984  0.01684933  0.65514652     0.19700
F1017       F  0.84451449  0.98509685  0.62824550    -0.13100
F1018       F  0.80823825  0.04779130  0.67293250    -0.15500
F1019       F  0.92790024  0.05378100  0.69293489    -0.15500
F1020       F  0.89179090  0.12380622  0.73541846    -0.13100
C1021       C  0.83680629  0.56117458  0.57858718     0.24900
C1022       C  0.84638838  0.49500811  0.56258291    -0.23200
C1023       C  0.87676811  0.47758265  0.56267755     0.19800
C1024       C  0.89724484  0.53082958  0.57345600     0.24800
C1025       C  0.88782171  0.60126370  0.58581667    -0.23200
C1026       C  0.85733251  0.61357806  0.59035837     0.19700
F1027       F  0.84715572  0.67995505  0.60310672    -0.13100
F1028       F  0.80786023  0.57966081  0.07983096    -0.15500
F1029       F  0.92631571  0.51515122  0.56996204    -0.15500
F1030       F  0.88692316  0.41159874  0.54946275    -0.13100
C1031       C  0.83989351  0.86854676  0.50516577     0.24900
C1032       C  0.85522481  0.92433320  0.52252372    -0.23200
C1033       C  0.83964663  0.98668282  0.53544718     0.19800
C1034       C  0.80891814  0.98996042  0.53319444     0.24800
C1035       C  0.79342985  0.93123751  0.51766540    -0.23200
C1036       C  0.80935961  0.87237594  0.50241105     0.19700
F1037       F  0.79521607  0.81475709  0.48718992    -0.13100
F1038       F  0.85431970  0.80658743  0.49331488    -0.15500
F1039       F  0.79430498  0.04911054  0.04706250    -0.15500
F1040       F  0.85385249  0.04016885  0.55311676    -0.13100
loop_ 
_geom_bond_atom_site_label_1 
_geom_bond_atom_site_label_2 
_geom_bond_distance 
_geom_bond_site_symmetry_2 
_ccdc_geom_bond_type 
C1            N2   1.367       .  A
C1            N6   1.370       .  A
C1           C62   1.488       .  S
N2            C3   1.362       .  A
C3            N4   1.355       .  A
C3          C633   1.473       .  S
N4            C5   1.355       .  A
C5            N6   1.366       .  A
C5           C22   1.481   1_455  S
O7           C23   1.277       .  A
O7          Zn13   2.017       .  S
C8          C512   1.471       .  S
C8           O24   1.282       .  A
C8           O21   1.267       .  A
O9           C22   1.278   1_565  A
O9          Cd16   2.091       .  S
O10          C28   1.269       .  A
O10         Cd19   2.031       .  S
O11          C25   1.283       .  A
O11         Cd15   2.122       .  S
O12          C23   1.285       .  A
O12         Cd15   2.132       .  S
Zn13         O24   2.087       .  S
Zn13         O26   2.054   1_565  S
Zn13         O18   1.911       .  S
O14          C25   1.269       .  A
O14         Cd19   2.037       .  S
Cd15         O17   2.114       .  S
Cd15         O18   1.988       .  S
Cd16         O20   2.093       .  S
Cd16         O29   2.075       .  S
Cd16         O18   1.975       .  S
O17          C27   1.285       .  A
O18         Cd19   1.949       .  S
Cd19         O21   2.016       .  S
O20          C27   1.283       .  A
C22          O26   1.281       .  A
C23         C630   1.478   1_654  S
C25         C505   1.489       .  S
C27          C36   1.482   1_655  S
C28         C495   1.479   1_565  S
C28          O29   1.275       .  A
C30          N31   1.371       .  A
C30         N555   1.361   1_554  A
C30         C472   1.482       .  S
N31          C32   1.368       .  A
C32         N553   1.348       .  A
C32         C502   1.488       .  S
N33          C34   1.345       .  A
N33         C552   1.348       .  A
C34          N35   1.353       .  A
C34         C482   1.468       .  S
N35         C550   1.361       .  A
C36          N37   1.366       .  A
C36          N41   1.367   1_455  A
N37          C38   1.363       .  A
C38          N39   1.358       .  A
C38          C57   1.480       .  S
N39          C40   1.358       .  A
C40          N41   1.361   1_455  A
C40          C78   1.477   1_455  S
O42          C58   1.278       .  A
O42         Zn48   2.021       .  S
C43         C462   1.476       .  S
C43          O59   1.283       .  A
C43          O56   1.266       .  A
O44          C57   1.281       .  A
O44         Cd51   2.097       .  S
O45          C63   1.269       .  A
O45         Cd54   2.027       .  S
O46          C60   1.284       .  A
O46         Cd50   2.125       .  S
O47          C58   1.287       .  A
O47         Cd50   2.138       .  S
Zn48         O59   2.098       .  S
Zn48         O61   2.048       .  S
Zn48         O53   1.911       .  S
O49          C60   1.268       .  A
O49         Cd54   2.029       .  S
Cd50         O52   2.113       .  S
Cd50         O53   1.987       .  S
Cd51         O55   2.114       .  S
Cd51         O64   2.097       .  S
Cd51         O53   1.972       .  S
O52          C62   1.285       .  A
O53         Cd54   1.939       .  S
Cd54         O56   2.019       .  S
O55          C62   1.286       .  A
C57          O61   1.281       .  A
C58          C73   1.481       .  S
C60         C452   1.485       .  S
C63         C445   1.487       .  S
C63          O64   1.278       .  A
C65          N66   1.369       .  A
C65          N70   1.363       .  A
C65         C422   1.484       .  S
N66          C67   1.364       .  A
C67          N68   1.348       .  A
C67         C455   1.484       .  S
N68          C69   1.348       .  A
C69          N70   1.358       .  A
C69         C435   1.478       .  S
C71          N72   1.369       .  A
C71          N76   1.368       .  A
C71         C133   1.487       .  S
N72          C73   1.362       .  A
C73          N74   1.359       .  A
N74          C75   1.359       .  A
C75          N76   1.364       .  A
C75          C92   1.486   1_455  S
O77          C93   1.282       .  A
O77         Zn83   2.090       .  S
C78          O94   1.276       .  A
C78          O91   1.285       .  A
O79          C92   1.281       .  A
O79         Cd86   2.111       .  S
O80          C98   1.284       .  A
O80         Cd89   2.109       .  S
O81          C95   1.268       .  A
O81         Cd85   2.032       .  S
O82          C93   1.269       .  A
O82         Cd85   2.034       .  S
Zn83         O94   2.012       .  S
Zn83         O96   2.046       .  S
Zn83         O88   1.919       .  S
O84          C95   1.283       .  A
O84         Cd89   2.122       .  S
Cd85         O87   2.009       .  S
Cd85         O88   1.953       .  S
Cd86         O90   2.098       .  S
Cd86         O99   2.116       .  S
Cd86         O88   1.990       .  S
O87          C97   1.266       .  A
O88         Cd89   1.996       .  S
Cd89         O91   2.132       .  S
O90          C97   1.278       .  A
C92          O96   1.279       .  A
C93         C412   1.476       .  S
C95         C402   1.490       .  S
C97         C485   1.483       .  S
C98         C106   1.489   1_655  S
C98          O99   1.286       .  A
C100        N101   1.369       .  A
C100        N105   1.362       .  A
C100        C392   1.485       .  S
N101        C102   1.365       .  A
C102        N103   1.349       .  A
C102        C405   1.491   1_545  S
N103        C104   1.348       .  A
C104        N105   1.357       .  A
C104        C492   1.480       .  S
C106        N107   1.370       .  A
C106        N111   1.368   1_455  A
N107        C108   1.366       .  A
C108        N109   1.357       .  A
C108        C127   1.486       .  S
N109        C110   1.357       .  A
C110        N111   1.362   1_455  A
C110        C543   1.478   1_455  S
O112        C128   1.281       .  A
O112       Zn118   2.086       .  S
C113        C523   1.473       .  S
C113        O129   1.278       .  A
C113        O126   1.284       .  A
O114        C127   1.281       .  A
O114       Cd121   2.112   1_565  S
O115        C133   1.285       .  A
O115       Cd124   2.113       .  S
O116        C130   1.270       .  A
O116       Cd120   2.044       .  S
O117        C128   1.266       .  A
O117       Cd120   2.023       .  S
Zn118       O129   2.019       .  S
Zn118       O131   2.047   1_545  S
Zn118       O123   1.917       .  S
O119        C130   1.281       .  A
O119       Cd124   2.115       .  S
Cd120       O122   2.036       .  S
Cd120       O123   1.955       .  S
Cd121       O125   2.083       .  S
Cd121       O134   2.107       .  S
Cd121       O123   1.982       .  S
O122        C132   1.271       .  A
O123       Cd124   1.990       .  S
Cd124       O126   2.117       .  S
O125        C132   1.277       .  A
C127        O131   1.279       .  A
C128        C382   1.470       .  S
C130        C372   1.492       .  S
C132        C432   1.483   1_545  S
C133        O134   1.284       .  A
C135        N136   1.366       .  A
C135        N660   1.363       .  A
C135        C362   1.484       .  S
N136        C137   1.361       .  A
C137        N658   1.348       .  A
C137        C375   1.490       .  S
N138        C139   1.351       .  A
N138        C657   1.348   1_554  A
C139        N140   1.361       .  A
C139        C442   1.477       .  S
N140        C655   1.363   1_554  A
C141        N142   1.372       .  A
C141        N146   1.367       .  A
C141        C203   1.488       .  S
N142        C143   1.366       .  A
C143        N144   1.355       .  A
C143        C753   1.482       .  S
N144        C145   1.355       .  A
C145        N146   1.362       .  A
C145        C162   1.477       .  S
O147        C163   1.281       .  A
O147       Zn153   2.086       .  S
C148        C735   1.477   1_554  S
C148        O164   1.277       .  A
C148        O161   1.285       .  A
O149        C162   1.281       .  A
O149       Cd156   2.101       .  S
O150        C168   1.284       .  A
O150       Cd159   2.093       .  S
O151        C165   1.266       .  A
O151       Cd155   2.024       .  S
O152        C163   1.267       .  A
O152       Cd155   2.015       .  S
Zn153       O164   2.017       .  S
Zn153       O166   2.031       .  S
Zn153       O158   1.899       .  S
O154        C165   1.282       .  A
O154       Cd159   2.119       .  S
Cd155       O157   2.021       .  S
Cd155       O158   1.925       .  S
Cd156       O160   2.099       .  S
Cd156       O169   2.106       .  S
Cd156       O158   1.972       .  S
O157        C167   1.267       .  A
O158       Cd159   1.984       .  S
Cd159       O161   2.130       .  S
O160        C167   1.279       .  A
C162        O166   1.279       .  A
C163        C475   1.476       .  S
C165        C355   1.483       .  S
C167        C342   1.486       .  S
C168        C176   1.479       .  S
C168        O169   1.284       .  A
C170        N171   1.368       .  A
C170        N695   1.362   1_554  A
C170        C515   1.482       .  S
N171        C172   1.364       .  A
C172        N693   1.349       .  A
C172        C352   1.483       .  S
N173        C174   1.347       .  A
N173        C692   1.349       .  A
C174        N175   1.357       .  A
C174        C332   1.477       .  S
N175        C690   1.362       .  A
C176        N177   1.369       .  A
C176        N181   1.364       .  A
N177        C178   1.364       .  A
C178        N179   1.354       .  A
C178        C268   1.474       .  S
N179        C180   1.354       .  A
C180        N181   1.358       .  A
C180        C197   1.468       .  S
O182        C198   1.280       .  A
O182       Zn188   2.083       .  S
C183        C248   1.482       .  S
C183        O199   1.276       .  A
C183        O196   1.286       .  A
O184        C197   1.281   1_565  A
O184       Cd191   2.091       .  S
O185        C203   1.284       .  A
O185       Cd194   2.108       .  S
O186        C200   1.267       .  A
O186       Cd190   2.019       .  S
O187        C198   1.267       .  A
O187       Cd190   2.022       .  S
Zn188       O199   2.016       .  S
Zn188       O201   2.017   1_565  S
Zn188       O193   1.905       .  S
O189        C200   1.282       .  A
O189       Cd194   2.106       .  S
Cd190       O192   2.023       .  S
Cd190       O193   1.930       .  S
Cd191       O195   2.096       .  S
Cd191       O204   2.112       .  S
Cd191       O193   1.980       .  S
O192        C202   1.268       .  A
O193       Cd194   1.987       .  S
Cd194       O196   2.142       .  S
O195        C202   1.277       .  A
C197        O201   1.278       .  A
C198        C425   1.471       .  S
C200        C322   1.474       .  S
C202        C312   1.486   1_565  S
C203        O204   1.284       .  A
C205        N206   1.364       .  A
C205        N210   1.365       .  A
C205        C465   1.487       .  S
N206        C207   1.360       .  A
C207        N208   1.349       .  A
C207        C302   1.482       .  S
N208        C209   1.349       .  A
C209        N210   1.361       .  A
C209        C325   1.479       .  S
C211        N212   1.369       .  A
C211        N216   1.369       .  A
C211        C272   1.488       .  S
N212        C213   1.365       .  A
C213        N214   1.355       .  A
C213        C232   1.480       .  S
N214        C215   1.356       .  A
C215        N216   1.363       .  A
C215        C668   1.477       .  S
O217        C233   1.277       .  A
O217       Zn223   2.021       .  S
C218        C365   1.472       .  S
C218        O234   1.283       .  A
C218        O231   1.267       .  A
O219        C232   1.281       .  A
O219       Cd226   2.093       .  S
O220        C238   1.270       .  A
O220       Cd229   2.035       .  S
O221        C235   1.280       .  A
O221       Cd225   2.098       .  S
O222        C233   1.284       .  A
O222       Cd225   2.135       .  S
Zn223       O234   2.092       .  S
Zn223       O236   2.056       .  S
Zn223       O228   1.920       .  S
O224        C235   1.270       .  A
O224       Cd229   2.039       .  S
Cd225       O227   2.113       .  S
Cd225       O228   1.997       .  S
Cd226       O230   2.108       .  S
Cd226       O239   2.085       .  S
Cd226       O228   1.984       .  S
O227        C237   1.284       .  A
O228       Cd229   1.951       .  S
Cd229       O231   2.016       .  S
O230        C237   1.283       .  A
C232        O236   1.283       .  A
C233        C663   1.482       .  S
C235        C295   1.479       .  S
C237        C246   1.488       .  S
C238        C305   1.482       .  S
C238        O239   1.275       .  A
C240        N241   1.365       .  A
C240        N765   1.362       .  A
C240        C385   1.492       .  S
N241        C242   1.362       .  A
C242        N763   1.351       .  A
C242        C292   1.483   1_545  S
N243        C244   1.350   1_556  A
N243        C762   1.351       .  A
C244        N245   1.359       .  A
C244        C315   1.479       .  S
N245        C760   1.362   1_554  A
C246        N247   1.370       .  A
C246        N251   1.368       .  A
N247        C248   1.364       .  A
C248        N249   1.358       .  A
N249        C250   1.357       .  A
C250        N251   1.365       .  A
C250        C267   1.483       .  S
O252        C268   1.278       .  A
O252       Zn258   2.025       .  S
C253        C395   1.477       .  S
C253        O269   1.283       .  A
C253        O266   1.267       .  A
O254        C267   1.281       .  A
O254       Cd261   2.101   1_565  S
O255        C273   1.268   1_545  A
O255       Cd264   2.020       .  S
O256        C270   1.280       .  A
O256       Cd260   2.098       .  S
O257        C268   1.282       .  A
O257       Cd260   2.114       .  S
Zn258       O269   2.101       .  S
Zn258       O271   2.053   1_545  S
Zn258       O263   1.920       .  S
O259        C270   1.268       .  A
O259       Cd264   2.037       .  S
Cd260       O262   2.111       .  S
Cd260       O263   1.988       .  S
Cd261       O265   2.109       .  S
Cd261       O274   2.086   1_545  S
Cd261       O263   1.980       .  S
O262        C272   1.284       .  A
O263       Cd264   1.948       .  S
Cd264       O266   2.018       .  S
O265        C272   1.284       .  A
C267        O271   1.282       .  A
C270        C282   1.486       .  S
C273        C335   1.480       .  S
C273        O274   1.277       .  A
C275        N276   1.368       .  A
C275        N280   1.371       .  A
C275        C415   1.498       .  S
N276        C277   1.360       .  A
C277        N278   1.346       .  A
C277        C345   1.478       .  S
N278        C279   1.346       .  A
C279        N280   1.363       .  A
C279        C285   1.490       .  S
C281        C282   1.403       .  A
C281        C286   1.394       .  A
C281        F288   1.358       .  S
C282        C283   1.415       .  A
C283        C284   1.403       .  A
C283        F290   1.358       .  S
C284        C285   1.405       .  A
C284        F289   1.357       .  S
C285        C286   1.415       .  A
C286        F287   1.358       .  S
C291        C292   1.406       .  A
C291        C296   1.399       .  A
C291        F298   1.357       .  S
C292        C293   1.411       .  A
C293        C294   1.397       .  A
C293        F300   1.358   1_565  S
C294        C295   1.403       .  A
C294        F299   1.358       .  S
C295        C296   1.411       .  A
C296        F297   1.358       .  S
C301        C302   1.413       .  A
C301        C306   1.397       .  A
C301        F308   1.359       .  S
C302        C303   1.405       .  A
C303        C304   1.397       .  A
C303        F310   1.357       .  S
C304        C305   1.412       .  A
C304        F309   1.358       .  S
C305        C306   1.405       .  A
C306        F307   1.358       .  S
C311        C312   1.414       .  A
C311        C316   1.395       .  A
C311        F318   1.358   1_545  S
C312        C313   1.407       .  A
C313        C314   1.399       .  A
C313        F320   1.358       .  S
C314        C315   1.410       .  A
C314        F319   1.358       .  S
C315        C316   1.404       .  A
C316        F317   1.358       .  S
C321        C322   1.411       .  A
C321        C326   1.397       .  A
C321        F328   1.359       .  S
C322        C323   1.400       .  A
C323        C324   1.396       .  A
C323        F330   1.358       .  S
C324        C325   1.412       .  A
C324        F329   1.358       .  S
C325        C326   1.405       .  A
C326        F327   1.357       .  S
C331        C332   1.404       .  A
C331        C336   1.395       .  A
C331        F338   1.358       .  S
C332        C333   1.411       .  A
C333        C334   1.394       .  A
C333        F340   1.358       .  S
C334        C335   1.405       .  A
C334        F339   1.358       .  S
C335        C336   1.414       .  A
C336        F337   1.359       .  S
C341        C342   1.416       .  A
C341        C346   1.399       .  A
C341        F348   1.358       .  S
C342        C343   1.405       .  A
C343        C344   1.396       .  A
C343        F350   1.358       .  S
C344        C345   1.410       .  A
C344        F349   1.358       .  S
C345        C346   1.402       .  A
C346        F347   1.358       .  S
C351        C352   1.414       .  A
C351        C356   1.398   1_565  A
C351        F358   1.358       .  S
C352        C353   1.403   1_565  A
C353        C354   1.399       .  A
C353        F880   1.357       .  S
C354        C355   1.415       .  A
C354        F359   1.358       .  S
C355        C356   1.402       .  A
C356        F357   1.358       .  S
F360        C873   1.357       .  S
C361        C882   1.407   1_554  A
C361        C886   1.402       .  A
C361        F368   1.358       .  S
C362        C363   1.409       .  A
C362        C881   1.407       .  A
C363        C364   1.401       .  A
C363        F370   1.357       .  S
C364        C365   1.403       .  A
C364        F369   1.358       .  S
C365        C366   1.407       .  A
C366        C881   1.402       .  A
C366        F887   1.358       .  S
F367        C886   1.358       .  S
C371        C372   1.415       .  A
C371        C376   1.401       .  A
C371        F378   1.358       .  S
C372        C373   1.406       .  A
C373        C374   1.400       .  A
C373        F380   1.358       .  S
C374        C375   1.414       .  A
C374        F379   1.359       .  S
C375        C376   1.406       .  A
C376        F897   1.357       .  S
F377        C896   1.357       .  S
C381        C382   1.403       .  A
C381        C906   1.400       .  A
C381        F908   1.358       .  S
C382        C383   1.404   1_545  A
C383        C384   1.402       .  A
C383        F390   1.358       .  S
C384        C385   1.412   1_565  A
C384        F389   1.357       .  S
C385        C906   1.412       .  A
C386        C901   1.400       .  A
C386        C905   1.412   1_554  A
C386        F387   1.358       .  S
F388        C901   1.358       .  S
C391        C392   1.406       .  A
C391        C396   1.398       .  A
C391        F398   1.358       .  S
C392        C393   1.409   1_545  A
C393        C394   1.407       .  A
C393        F400   1.358       .  S
C394        C395   1.407   1_565  A
C394        F399   1.358       .  S
C395        C396   1.406       .  A
C396        F397   1.358       .  S
C401        C402   1.417       .  A
C401        C406   1.402       .  A
C401        F408   1.358       .  S
C402        C403   1.403       .  A
C403        C404   1.397   1_565  A
C403        F410   1.358       .  S
C404        C405   1.416   1_545  A
C404        F409   1.358       .  S
C405        C406   1.404       .  A
C406        F407   1.357       .  S
C411        C412   1.402       .  A
C411        C416   1.404       .  A
C411        F418   1.358       .  S
C412        C413   1.404       .  A
C413        C414   1.403       .  A
C413        F420   1.358       .  S
C414        C415   1.412       .  A
C414        F419   1.357       .  S
C415        C416   1.414       .  A
C416        F417   1.357       .  S
C421        C422   1.408       .  A
C421        C426   1.399       .  A
C421        F428   1.358       .  S
C422        C423   1.409       .  A
C423        C424   1.403       .  A
C423        F430   1.357   1_565  S
C424        C425   1.405       .  A
C424        F429   1.358   1_565  S
C425        C426   1.404       .  A
C426        F427   1.358       .  S
C431        C432   1.406       .  A
C431        C436   1.394       .  A
C431        F438   1.358       .  S
C432        C433   1.414       .  A
C433        C434   1.397       .  A
C433        F440   1.358   1_565  S
C434        C435   1.404       .  A
C434        F439   1.358       .  S
C435        C436   1.410       .  A
C436        F437   1.358       .  S
C441        C442   1.409       .  A
C441        C446   1.397       .  A
C441        F448   1.358       .  S
C442        C443   1.404       .  A
C443        C444   1.397       .  A
C443        F450   1.358       .  S
C444        C445   1.415       .  A
C444        F449   1.358       .  S
C445        C446   1.407       .  A
C446        F447   1.358       .  S
C451        C452   1.402       .  A
C451        C456   1.399   1_545  A
C451        F458   1.358       .  S
C452        C453   1.415       .  A
C453        C454   1.401       .  A
C453        F460   1.358       .  S
C454        C455   1.404   1_545  A
C454        F459   1.358       .  S
C455        C456   1.413       .  A
C456        F457   1.358       .  S
C461        C462   1.406       .  A
C461        C466   1.399       .  A
C461        F468   1.358       .  S
C462        C463   1.405       .  A
C463        C464   1.404       .  A
C463        F470   1.358       .  S
C464        C465   1.411       .  A
C464        F469   1.358       .  S
C465        C466   1.408       .  A
C466        F467   1.358       .  S
C471        C472   1.407       .  A
C471        C476   1.394       .  A
C471        F478   1.358   1_554  S
C472        C473   1.408       .  A
C473        C474   1.407       .  A
C473        F480   1.357       .  S
C474        C475   1.408       .  A
C474        F479   1.358       .  S
C475        C476   1.405       .  A
C476        F477   1.359   1_554  S
C481        C482   1.407       .  A
C481        C486   1.396       .  A
C481        F488   1.358       .  S
C482        C483   1.401       .  A
C483        C484   1.393       .  A
C483        F490   1.359       .  S
C484        C485   1.417       .  A
C484        F489   1.359       .  S
C485        C486   1.406       .  A
C486        F487   1.357       .  S
C491        C492   1.405       .  A
C491        C496   1.397       .  A
C491        F498   1.358       .  S
C492        C493   1.411       .  A
C493        C494   1.393       .  A
C493        F500   1.358       .  S
C494        C495   1.405       .  A
C494        F499   1.358       .  S
C495        C496   1.412       .  A
C496        F497   1.358   1_545  S
C501        C502   1.404       .  A
C501        C506   1.404       .  A
C501       F1028   1.357       .  S
C502        C503   1.415       .  A
C503        C504   1.398       .  A
C503        F510   1.359       .  S
C504        C505   1.402       .  A
C504        F509   1.358       .  S
C505        C506   1.416       .  A
C506        F507   1.358       .  S
F508       C1021   1.357       .  S
C511        C512   1.405       .  A
C511        C516   1.397       .  A
C511        F518   1.358   1_554  S
C512        C513   1.406       .  A
C513        C514   1.404       .  A
C513        F520   1.358   1_565  S
C514        C515   1.409       .  A
C514       F1039   1.358   1_565  S
C515        C516   1.407       .  A
C516        F517   1.358   1_554  S
F519       C1034   1.358   1_545  S
C521        N522   1.367       .  A
C521        N526   1.370       .  A
C521        C582   1.488       .  S
N522        C523   1.362       .  A
C523        N524   1.355       .  A
N524        C525   1.355       .  A
C525        N526   1.366       .  A
C525        C542   1.480   1_455  S
O527        C543   1.277       .  A
O527       Zn533   2.017       .  S
C528       C1032   1.471       .  S
C528        O544   1.282       .  A
C528        O541   1.267       .  A
O529        C542   1.278   1_565  A
O529       Cd536   2.091       .  S
O530        C548   1.269       .  A
O530       Cd539   2.031       .  S
O531        C545   1.283       .  A
O531       Cd535   2.122       .  S
O532        C543   1.285       .  A
O532       Cd535   2.132       .  S
Zn533       O544   2.087       .  S
Zn533       O546   2.053   1_565  S
Zn533       O538   1.911       .  S
O534        C545   1.269       .  A
O534       Cd539   2.038       .  S
Cd535       O537   2.114       .  S
Cd535       O538   1.989       .  S
Cd536       O540   2.093       .  S
Cd536       O549   2.075       .  S
Cd536       O538   1.975       .  S
O537        C547   1.285       .  A
O538       Cd539   1.949       .  S
Cd539       O541   2.016       .  S
O540        C547   1.283       .  A
C542        O546   1.281       .  A
C545       C1025   1.489       .  S
C547        C556   1.482   1_655  S
C548       C1015   1.479   1_565  S
C548        O549   1.275       .  A
C550        N551   1.371       .  A
C550        C992   1.482       .  S
N551        C552   1.368       .  A
C552       C1022   1.488       .  S
N553        C554   1.345   1_554  A
C554        N555   1.353       .  A
C554       C1002   1.468       .  S
C556        N557   1.366       .  A
C556        N561   1.367   1_455  A
N557        C558   1.363       .  A
C558        N559   1.358       .  A
C558        C577   1.480       .  S
N559        C560   1.358       .  A
C560        N561   1.361   1_455  A
C560        C598   1.477   1_455  S
O562        C578   1.278       .  A
O562       Zn568   2.021       .  S
C563        C982   1.476       .  S
C563        O579   1.283       .  A
C563        O576   1.266       .  A
O564        C577   1.281       .  A
O564       Cd571   2.097       .  S
O565        C583   1.269       .  A
O565       Cd574   2.027       .  S
O566        C580   1.284       .  A
O566       Cd570   2.126       .  S
O567        C578   1.287       .  A
O567       Cd570   2.138       .  S
Zn568       O579   2.098       .  S
Zn568       O581   2.048       .  S
Zn568       O573   1.911       .  S
O569        C580   1.268       .  A
O569       Cd574   2.029       .  S
Cd570       O572   2.113       .  S
Cd570       O573   1.987       .  S
Cd571       O575   2.114       .  S
Cd571       O584   2.097       .  S
Cd571       O573   1.973       .  S
O572        C582   1.285       .  A
O573       Cd574   1.939       .  S
Cd574       O576   2.019       .  S
O575        C582   1.286       .  A
C577        O581   1.281       .  A
C578        C593   1.481       .  S
C580        C972   1.485       .  S
C583        C965   1.487       .  S
C583        O584   1.278       .  A
C585        N586   1.369       .  A
C585        N590   1.363       .  A
C585        C942   1.484       .  S
N586        C587   1.363       .  A
C587        N588   1.348       .  A
C587        C975   1.484       .  S
N588        C589   1.348       .  A
C589        N590   1.358       .  A
C589        C955   1.478       .  S
C591        N592   1.369       .  A
C591        N596   1.368       .  A
C591        C653   1.487       .  S
N592        C593   1.362       .  A
C593        N594   1.358       .  A
N594        C595   1.359       .  A
C595        N596   1.364       .  A
C595        C612   1.486   1_455  S
O597        C613   1.282       .  A
O597       Zn603   2.090       .  S
C598        O614   1.276       .  A
C598        O611   1.285       .  A
O599        C612   1.281       .  A
O599       Cd606   2.111       .  S
O600        C618   1.284       .  A
O600       Cd609   2.109       .  S
O601        C615   1.268       .  A
O601       Cd605   2.032       .  S
O602        C613   1.269       .  A
O602       Cd605   2.034       .  S
Zn603       O614   2.012       .  S
Zn603       O616   2.046       .  S
Zn603       O608   1.918       .  S
O604        C615   1.283       .  A
O604       Cd609   2.121       .  S
Cd605       O607   2.010       .  S
Cd605       O608   1.953       .  S
Cd606       O610   2.098       .  S
Cd606       O619   2.116       .  S
Cd606       O608   1.990       .  S
O607        C617   1.266       .  A
O608       Cd609   1.996       .  S
Cd609       O611   2.131       .  S
O610        C617   1.278       .  A
C612        O616   1.279       .  A
C613        C932   1.476       .  S
C615        C922   1.490       .  S
C617       C1005   1.483       .  S
C618        C626   1.489   1_655  S
C618        O619   1.285       .  A
C620        N621   1.369       .  A
C620        N625   1.362       .  A
C620        C912   1.485       .  S
N621        C622   1.365       .  A
C622        N623   1.349       .  A
C622        C925   1.491   1_545  S
N623        C624   1.348       .  A
C624        N625   1.358       .  A
C624       C1012   1.481       .  S
C626        N627   1.370       .  A
C626        N631   1.368   1_455  A
N627        C628   1.366       .  A
C628        N629   1.357       .  A
C628        C647   1.486       .  S
N629        C630   1.357       .  A
C630        N631   1.362   1_455  A
O632        C648   1.281       .  A
O632       Zn638   2.086       .  S
C633        O649   1.278       .  A
C633        O646   1.284   1_554  A
O634        C647   1.281       .  A
O634       Cd641   2.112   1_565  S
O635        C653   1.285       .  A
O635       Cd644   2.113       .  S
O636        C650   1.270       .  A
O636       Cd640   2.044       .  S
O637        C648   1.266       .  A
O637       Cd640   2.023       .  S
Zn638       O649   2.019   1_556  S
Zn638       O651   2.047   1_545  S
Zn638       O643   1.917       .  S
O639        C650   1.281       .  A
O639       Cd644   2.115       .  S
Cd640       O642   2.036       .  S
Cd640       O643   1.955       .  S
Cd641       O645   2.083       .  S
Cd641       O654   2.107       .  S
Cd641       O643   1.982       .  S
O642        C652   1.271       .  A
O643       Cd644   1.990       .  S
Cd644       O646   2.117       .  S
O645        C652   1.277       .  A
C647        O651   1.279       .  A
C648        C902   1.471       .  S
C650        C892   1.491       .  S
C652        C952   1.483   1_545  S
C653        O654   1.284       .  A
C655        N656   1.366       .  A
C655        C882   1.484       .  S
N656        C657   1.361       .  A
C657        C895   1.490       .  S
N658        C659   1.351       .  A
C659        N660   1.361       .  A
C659        C962   1.477       .  S
C661        N662   1.372       .  A
C661        N666   1.367       .  A
C661        C723   1.488       .  S
N662        C663   1.366       .  A
C663        N664   1.355       .  A
N664        C665   1.355       .  A
C665        N666   1.362       .  A
C665        C682   1.477       .  S
O667        C683   1.281       .  A
O667       Zn673   2.086       .  S
C668        O684   1.277       .  A
C668        O681   1.285       .  A
O669        C682   1.281       .  A
O669       Cd676   2.101       .  S
O670        C688   1.284       .  A
O670       Cd679   2.093       .  S
O671        C685   1.266       .  A
O671       Cd675   2.023       .  S
O672        C683   1.267       .  A
O672       Cd675   2.015       .  S
Zn673       O684   2.017       .  S
Zn673       O686   2.030       .  S
Zn673       O678   1.899       .  S
O674        C685   1.282       .  A
O674       Cd679   2.119       .  S
Cd675       O677   2.021       .  S
Cd675       O678   1.925       .  S
Cd676       O680   2.099       .  S
Cd676       O689   2.107       .  S
Cd676       O678   1.972       .  S
O677        C687   1.267       .  A
O678       Cd679   1.984       .  S
Cd679       O681   2.130       .  S
O680        C687   1.279       .  A
C682        O686   1.279       .  A
C683        C995   1.476       .  S
C685        C875   1.483       .  S
C687        C862   1.486       .  S
C688        C696   1.479       .  S
C688        O689   1.284       .  A
C690        N691   1.368       .  A
C690       C1035   1.482       .  S
N691        C692   1.364       .  A
C692        C872   1.483       .  S
N693        C694   1.347   1_554  A
C694        N695   1.357       .  A
C694        C852   1.477       .  S
C696        N697   1.369       .  A
C696        N701   1.364       .  A
N697        C698   1.364       .  A
C698        N699   1.354       .  A
C698        C788   1.474       .  S
N699        C700   1.354       .  A
C700        N701   1.358       .  A
C700        C717   1.468       .  S
O702        C718   1.280       .  A
O702       Zn708   2.083       .  S
C703        C768   1.482       .  S
C703        O719   1.276       .  A
C703        O716   1.286       .  A
O704        C717   1.281   1_565  A
O704       Cd711   2.091       .  S
O705        C723   1.284       .  A
O705       Cd714   2.108       .  S
O706        C720   1.267       .  A
O706       Cd710   2.019       .  S
O707        C718   1.267       .  A
O707       Cd710   2.022       .  S
Zn708       O719   2.016       .  S
Zn708       O721   2.017   1_565  S
Zn708       O713   1.905       .  S
O709        C720   1.282       .  A
O709       Cd714   2.106       .  S
Cd710       O712   2.023       .  S
Cd710       O713   1.930       .  S
Cd711       O715   2.096       .  S
Cd711       O724   2.112       .  S
Cd711       O713   1.980       .  S
O712        C722   1.268       .  A
O713       Cd714   1.987       .  S
Cd714       O716   2.142       .  S
O715        C722   1.277       .  A
C717        O721   1.278       .  A
C718        C945   1.471       .  S
C720        C842   1.474       .  S
C722        C832   1.486   1_565  S
C723        O724   1.284       .  A
C725        N726   1.364       .  A
C725        N730   1.365       .  A
C725        C985   1.487       .  S
N726        C727   1.360       .  A
C727        N728   1.349       .  A
C727        C822   1.482       .  S
N728        C729   1.349       .  A
C729        N730   1.361       .  A
C729        C845   1.479       .  S
C731        N732   1.369       .  A
C731        N736   1.369       .  A
C731        C792   1.488       .  S
N732        C733   1.365       .  A
C733        N734   1.355       .  A
C733        C752   1.480       .  S
N734        C735   1.356       .  A
C735        N736   1.363       .  A
O737        C753   1.277   1_556  A
O737       Zn743   2.021       .  S
C738        C885   1.472       .  S
C738        O754   1.283       .  A
C738        O751   1.267       .  A
O739        C752   1.281       .  A
O739       Cd746   2.094       .  S
O740        C758   1.270       .  A
O740       Cd749   2.035       .  S
O741        C755   1.280       .  A
O741       Cd745   2.098       .  S
O742        C753   1.284   1_556  A
O742       Cd745   2.135       .  S
Zn743       O754   2.093       .  S
Zn743       O756   2.057       .  S
Zn743       O748   1.921       .  S
O744        C755   1.270       .  A
O744       Cd749   2.039       .  S
Cd745       O747   2.113       .  S
Cd745       O748   1.997       .  S
Cd746       O750   2.108       .  S
Cd746       O759   2.085       .  S
Cd746       O748   1.984       .  S
O747        C757   1.284       .  A
O748       Cd749   1.951       .  S
Cd749       O751   2.016       .  S
O750        C757   1.283       .  A
C752        O756   1.283       .  A
C755        C815   1.479       .  S
C757        C766   1.488       .  S
C758        C825   1.482       .  S
C758        O759   1.275       .  A
C760        N761   1.365       .  A
C760        C905   1.492       .  S
N761        C762   1.362       .  A
C762        C812   1.483   1_545  S
N763        C764   1.350       .  A
C764        N765   1.359       .  A
C764        C835   1.479       .  S
C766        N767   1.370       .  A
C766        N771   1.368       .  A
N767        C768   1.364       .  A
C768        N769   1.358       .  A
N769        C770   1.357       .  A
C770        N771   1.365       .  A
C770        C787   1.483       .  S
O772        C788   1.278       .  A
O772       Zn778   2.025       .  S
C773        C915   1.477       .  S
C773        O789   1.283       .  A
C773        O786   1.267       .  A
O774        C787   1.281       .  A
O774       Cd781   2.101   1_565  S
O775        C793   1.268   1_545  A
O775       Cd784   2.020       .  S
O776        C790   1.280       .  A
O776       Cd780   2.098       .  S
O777        C788   1.282       .  A
O777       Cd780   2.114       .  S
Zn778       O789   2.102       .  S
Zn778       O791   2.054   1_545  S
Zn778       O783   1.920       .  S
O779        C790   1.268       .  A
O779       Cd784   2.037       .  S
Cd780       O782   2.111       .  S
Cd780       O783   1.988       .  S
Cd781       O785   2.109       .  S
Cd781       O794   2.086   1_545  S
Cd781       O783   1.980       .  S
O782        C792   1.284       .  A
O783       Cd784   1.948       .  S
Cd784       O786   2.018       .  S
O785        C792   1.284       .  A
C787        O791   1.282       .  A
C790        C802   1.486       .  S
C793        C855   1.480       .  S
C793        O794   1.277       .  A
C795        N796   1.368       .  A
C795        N800   1.371       .  A
C795        C935   1.498       .  S
N796        C797   1.360       .  A
C797        N798   1.346       .  A
C797        C865   1.478       .  S
N798        C799   1.346       .  A
C799        N800   1.363       .  A
C799        C805   1.490       .  S
C801        C802   1.403       .  A
C801        C806   1.394       .  A
C801        F808   1.358       .  S
C802        C803   1.415       .  A
C803        C804   1.403       .  A
C803        F810   1.358       .  S
C804        C805   1.405       .  A
C804        F809   1.357       .  S
C805        C806   1.415       .  A
C806        F807   1.358       .  S
C811        C812   1.406       .  A
C811        C816   1.399       .  A
C811        F818   1.357       .  S
C812        C813   1.411       .  A
C813        C814   1.397       .  A
C813        F820   1.358   1_565  S
C814        C815   1.403       .  A
C814        F819   1.358       .  S
C815        C816   1.411       .  A
C816        F817   1.358       .  S
C821        C822   1.413       .  A
C821        C826   1.397       .  A
C821        F828   1.359       .  S
C822        C823   1.405       .  A
C823        C824   1.397       .  A
C823        F830   1.357       .  S
C824        C825   1.412       .  A
C824        F829   1.358       .  S
C825        C826   1.405       .  A
C826        F827   1.358       .  S
C831        C832   1.414       .  A
C831        C836   1.395       .  A
C831        F838   1.358   1_545  S
C832        C833   1.407       .  A
C833        C834   1.399       .  A
C833        F840   1.358       .  S
C834        C835   1.410       .  A
C834        F839   1.358       .  S
C835        C836   1.404       .  A
C836        F837   1.358       .  S
C841        C842   1.411       .  A
C841        C846   1.397       .  A
C841        F848   1.359       .  S
C842        C843   1.400       .  A
C843        C844   1.396       .  A
C843        F850   1.358       .  S
C844        C845   1.412       .  A
C844        F849   1.358       .  S
C845        C846   1.405       .  A
C846        F847   1.357       .  S
C851        C852   1.404       .  A
C851        C856   1.395       .  A
C851        F858   1.358       .  S
C852        C853   1.411       .  A
C853        C854   1.394       .  A
C853        F860   1.358       .  S
C854        C855   1.404       .  A
C854        F859   1.358       .  S
C855        C856   1.414       .  A
C856        F857   1.359       .  S
C861        C862   1.416       .  A
C861        C866   1.399       .  A
C861        F868   1.358       .  S
C862        C863   1.405       .  A
C863        C864   1.395       .  A
C863        F870   1.358       .  S
C864        C865   1.410       .  A
C864        F869   1.358       .  S
C865        C866   1.402       .  A
C866        F867   1.358       .  S
C871        C872   1.414       .  A
C871        C876   1.398   1_565  A
C871        F878   1.358       .  S
C872        C873   1.403   1_565  A
C873        C874   1.399       .  A
C874        C875   1.415       .  A
C874        F879   1.358       .  S
C875        C876   1.402       .  A
C876        F877   1.358       .  S
C881        F888   1.358       .  S
C882        C883   1.409       .  A
C883        C884   1.401       .  A
C883        F890   1.357       .  S
C884        C885   1.403       .  A
C884        F889   1.358       .  S
C885        C886   1.407   1_556  A
C891        C892   1.415       .  A
C891        C896   1.401       .  A
C891        F898   1.358       .  S
C892        C893   1.406       .  A
C893        C894   1.400       .  A
C893        F900   1.358       .  S
C894        C895   1.414       .  A
C894        F899   1.359       .  S
C895        C896   1.406       .  A
C901        C902   1.403   1_554  A
C902        C903   1.404   1_545  A
C903        C904   1.401       .  A
C903        F910   1.358       .  S
C904        C905   1.412   1_565  A
C904        F909   1.357       .  S
C906        F907   1.358       .  S
C911        C912   1.406       .  A
C911        C916   1.398       .  A
C911        F918   1.358       .  S
C912        C913   1.409   1_545  A
C913        C914   1.407       .  A
C913        F920   1.358       .  S
C914        C915   1.407   1_565  A
C914        F919   1.358       .  S
C915        C916   1.406       .  A
C916        F917   1.358       .  S
C921        C922   1.417       .  A
C921        C926   1.402       .  A
C921        F928   1.358       .  S
C922        C923   1.403       .  A
C923        C924   1.397   1_565  A
C923        F930   1.358       .  S
C924        C925   1.416   1_545  A
C924        F929   1.358       .  S
C925        C926   1.404       .  A
C926        F927   1.357       .  S
C931        C932   1.402       .  A
C931        C936   1.404       .  A
C931        F938   1.358       .  S
C932        C933   1.404       .  A
C933        C934   1.403       .  A
C933        F940   1.358       .  S
C934        C935   1.412       .  A
C934        F939   1.357       .  S
C935        C936   1.414       .  A
C936        F937   1.357       .  S
C941        C942   1.408       .  A
C941        C946   1.399       .  A
C941        F948   1.358       .  S
C942        C943   1.409       .  A
C943        C944   1.403       .  A
C943        F950   1.357   1_565  S
C944        C945   1.405       .  A
C944        F949   1.358   1_565  S
C945        C946   1.404       .  A
C946        F947   1.358       .  S
C951        C952   1.406       .  A
C951        C956   1.394       .  A
C951        F958   1.358       .  S
C952        C953   1.413       .  A
C953        C954   1.397       .  A
C953        F960   1.358   1_565  S
C954        C955   1.405       .  A
C954        F959   1.358       .  S
C955        C956   1.410       .  A
C956        F957   1.358       .  S
C961        C962   1.409       .  A
C961        C966   1.397       .  A
C961        F968   1.358       .  S
C962        C963   1.404       .  A
C963        C964   1.397       .  A
C963        F970   1.358       .  S
C964        C965   1.415       .  A
C964        F969   1.358       .  S
C965        C966   1.407       .  A
C966        F967   1.358       .  S
C971        C972   1.402       .  A
C971        C976   1.399   1_545  A
C971        F978   1.358       .  S
C972        C973   1.415       .  A
C973        C974   1.401       .  A
C973        F980   1.358       .  S
C974        C975   1.404   1_545  A
C974        F979   1.358       .  S
C975        C976   1.413       .  A
C976        F977   1.358       .  S
C981        C982   1.406       .  A
C981        C986   1.399       .  A
C981        F988   1.358       .  S
C982        C983   1.405       .  A
C983        C984   1.404       .  A
C983        F990   1.358       .  S
C984        C985   1.411       .  A
C984        F989   1.358       .  S
C985        C986   1.408       .  A
C986        F987   1.358       .  S
C991        C992   1.407       .  A
C991        C996   1.394       .  A
C991        F998   1.358       .  S
C992        C993   1.408       .  A
C993        C994   1.407       .  A
C993       F1000   1.357       .  S
C994        C995   1.408       .  A
C994        F999   1.358       .  S
C995        C996   1.405       .  A
C996        F997   1.359       .  S
C1001      C1002   1.407       .  A
C1001      C1006   1.396       .  A
C1001      F1008   1.358       .  S
C1002      C1003   1.401       .  A
C1003      C1004   1.393       .  A
C1003      F1010   1.359       .  S
C1004      C1005   1.416       .  A
C1004      F1009   1.359       .  S
C1005      C1006   1.406       .  A
C1006      F1007   1.357       .  S
C1011      C1012   1.405       .  A
C1011      C1016   1.397       .  A
C1011      F1018   1.358       .  S
C1012      C1013   1.411       .  A
C1013      C1014   1.394       .  A
C1013      F1020   1.358       .  S
C1014      C1015   1.405       .  A
C1014      F1019   1.358       .  S
C1015      C1016   1.412       .  A
C1016      F1017   1.358   1_545  S
C1021      C1022   1.404       .  A
C1021      C1026   1.404       .  A
C1022      C1023   1.415       .  A
C1023      C1024   1.398       .  A
C1023      F1030   1.359       .  S
C1024      C1025   1.402       .  A
C1024      F1029   1.358       .  S
C1025      C1026   1.416       .  A
C1026      F1027   1.358       .  S
C1031      C1032   1.405       .  A
C1031      C1036   1.397       .  A
C1031      F1038   1.358       .  S
C1032      C1033   1.406       .  A
C1033      C1034   1.404       .  A
C1033      F1040   1.358   1_565  S
C1034      C1035   1.409       .  A
C1035      C1036   1.407       .  A
C1036      F1037   1.358       .  S
