geometry optimzed in LAMMPS
_audit_creation_date              2020-11-30 
_audit_creation_method            'lammps2cif' 
_symmetry_space_group_name_H-M    'P1' 
_symmetry_Int_Tables_number       1 
_symmetry_cell_setting            triclinic 
loop_ 
_symmetry_equiv_pos_as_xyz 
  x,y,z 
_cell_length_a                    34.36219663 
_cell_length_b                    34.349008365737156 
_cell_length_c                    34.59400858953163 
_cell_angle_alpha                 89.85103709436427 
_cell_angle_beta                  90.07225510687947 
_cell_angle_gamma                 90.9581780345866 
loop_ 
_atom_site_label 
_atom_site_type_symbol 
_atom_site_fract_x 
_atom_site_fract_y 
_atom_site_fract_z 
_atom_site_charge 
O1          O  0.53446777  0.04758933  0.85635368    -0.87100
O2          O  0.52640892  0.06014569  0.63895094    -0.87300
O3          O  0.60835853  0.04091091  0.73821194    -0.88900
O4          O  0.51884951  0.12864035  0.75886438    -0.87700
O5          O  0.45213164  0.12748931  0.75806958    -0.87300
O6          O  0.60784315  0.97428647  0.73575591    -0.88700
O7          O  0.55797647  0.09347600  0.68697562    -0.87100
O8          O  0.56976588  0.07987804  0.80952227    -0.86700
Zr9        Zr  0.54155503  0.06255159  0.74761149     2.84300
O10         O  0.48618119  0.06350358  0.70826943    -1.08700
O11         O  0.54226312  0.00607348  0.78525292    -1.09400
C12         C  0.56218320  0.07089272  0.84495688     1.06000
C13         C  0.54921924  0.08788864  0.65126738     1.05900
C14         C  0.62504889  0.00788249  0.73294272     1.08900
C15         C  0.48541272  0.14477233  0.76317739     1.06700
H16         H  0.56312010  0.00969731  0.68920742     0.32300
O17         O  0.54115889  0.00855241  0.70655608    -1.29700
H18         H  0.48662456  0.08182871  0.80469474     0.31900
O19         O  0.48645212  0.06025028  0.78691684    -1.31300
O20         O  0.44459117  0.96127573  0.63490666    -0.87100
O21         O  0.44025412  0.96066312  0.85564437    -0.88600
O22         O  0.55995246  0.92879331  0.68088642    -0.87200
O23         O  0.41161371  0.08767120  0.68495522    -0.87200
O24         O  0.40580478  0.07953696  0.80973001    -0.86900
O25         O  0.56953561  0.93346944  0.80659941    -0.86700
O26         O  0.45227242  0.88226422  0.75004064    -0.87100
O27         O  0.36252174  0.97046433  0.73992978    -0.86600
O28         O  0.51913671  0.88460268  0.74841022    -0.87600
O29         O  0.36449078  0.03684295  0.74421571    -0.86800
O30         O  0.53118591  0.96672179  0.63492556    -0.87200
O31         O  0.53356245  0.96087389  0.85508753    -0.86900
O32         O  0.44162890  0.04846595  0.85643982    -0.86600
O33         O  0.44131277  0.05297243  0.63687438    -0.87000
O34         O  0.41274169  0.92408996  0.68042376    -0.87300
O35         O  0.40407405  0.92946296  0.80908292    -0.88600
Zr36       Zr  0.48569398  0.00871756  0.66820777     2.83100
Zr37       Zr  0.48684396  0.00431346  0.82451818     2.83500
Zr38       Zr  0.54103524  0.95199241  0.74450627     2.84100
Zr39       Zr  0.43109726  0.06042173  0.74738840     2.83400
Zr40       Zr  0.42984116  0.94918857  0.74515973     2.84200
O41         O  0.43099893  0.00402278  0.78534330    -1.09200
O42         O  0.48530401  0.95180245  0.70583277    -1.08700
C43         C  0.42150147  0.93304509  0.64494928     1.06000
C44         C  0.41270549  0.93716238  0.84487087     1.08600
C45         C  0.55389178  0.93905742  0.64543483     1.06100
C46         C  0.41865762  0.07977319  0.64914619     1.06500
C47         C  0.41489253  0.07203789  0.84508945     1.06100
C48         C  0.56167951  0.93975950  0.84257693     1.05600
C49         C  0.48613213  0.86650840  0.75191585     1.06100
C50         C  0.34622241  0.00414931  0.73982318     1.05600
H51         H  0.48621440  0.92694960  0.80074250     0.32300
O52         O  0.48588595  0.94971767  0.78431440    -1.30300
H53         H  0.40751422  0.00608085  0.69016735     0.32300
O54         O  0.43004232  0.00590817  0.70689108    -1.31700
C55         C  0.69211111  0.20335159  0.50677023     0.85900
C56         C  0.67082509  0.17989470  0.53839510    -0.54400
C57         C  0.63106277  0.17962951  0.53518783     0.08800
C58         C  0.61605627  0.20363076  0.50068994     0.19700
C59         C  0.67662624  0.18729124  0.46818986    -0.55100
C60         C  0.63702590  0.18505350  0.46564841     0.08900
C61         C  0.67434068  0.24375276  0.50836701    -0.54600
C62         C  0.63495476  0.24489975  0.50630288     0.09500
H63         H  0.68597266  0.16472376  0.56136614     0.14000
H64         H  0.58399896  0.20377022  0.49777735    -0.00300
H65         H  0.69475453  0.17698527  0.44496149     0.14300
H66         H  0.69189199  0.27007425  0.51194277     0.14100
O67         O  0.57204588  0.09895936  0.31050022    -0.87100
O68         O  0.42724665  0.93070487  0.30882326    -0.87300
O69         O  0.45350726  0.06006921  0.35713736    -0.88900
O70         O  0.54057768  0.96856518  0.35595325    -0.87700
O71         O  0.57008871  0.93296962  0.30871187    -0.87300
O72         O  0.42319034  0.09542285  0.30992167    -0.88700
O73         O  0.45679418  0.96642404  0.35657477    -0.87100
O74         O  0.54189592  0.06183533  0.35747574    -0.86700
Zr75       Zr  0.49822211  0.01538547  0.32520281     2.84300
O76         O  0.49741461  0.96011998  0.28546479    -1.08700
O77         O  0.49857926  0.07122456  0.28638022    -1.09400
C78         C  0.56430002  0.09019328  0.34607321     1.06000
C79         C  0.43517438  0.93777836  0.34464441     1.05900
C80         C  0.43027322  0.08702017  0.34546528     1.08900
C81         C  0.56288312  0.94106337  0.34451877     1.06700
H82         H  0.42055751  0.01400043  0.30428208     0.32300
O83         O  0.44251948  0.01473894  0.28693065    -1.29700
H84         H  0.57608897  0.01558975  0.30310572     0.31900
O85         O  0.55368873  0.01585004  0.28625813    -1.31300
O86         O  0.41473935  0.94445872  0.18353278    -0.87100
O87         O  0.58150925  0.09026703  0.18437654    -0.88600
O88         O  0.37513355  0.04677305  0.25706211    -0.87200
O89         O  0.52958828  0.89405632  0.23643232    -0.87200
O90         O  0.61964799  0.98280634  0.25137319    -0.86900
O91         O  0.46615562  0.13755331  0.24204454    -0.86700
O92         O  0.45002907  0.06124978  0.13853731    -0.87100
O93         O  0.54045640  0.97298529  0.13698969    -0.86600
O94         O  0.41370984  0.08892966  0.18646835    -0.87600
O95         O  0.57642514  0.94161765  0.18265310    -0.86800
O96         O  0.37457629  0.98004434  0.25667041    -0.87200
O97         O  0.53306140  0.13877362  0.24073056    -0.86900
O98         O  0.62127002  0.04964710  0.25379431    -0.86600
O99         O  0.46295151  0.89331024  0.23668810    -0.87000
O100        O  0.45037864  0.97533325  0.13650591    -0.87300
O101        O  0.54405217  0.06102330  0.13718621    -0.88600
Zr102      Zr  0.44181761  0.96013629  0.24662065     2.83100
Zr103      Zr  0.55432617  0.07188608  0.24737959     2.83500
Zr104      Zr  0.44246508  0.07042925  0.24790614     2.84100
Zr105      Zr  0.55235103  0.96090077  0.24598046     2.83400
Zr106      Zr  0.49700870  0.01784813  0.16900346     2.84200
O107        O  0.55325647  0.01703794  0.20748324    -1.09200
O108        O  0.44131932  0.01599061  0.20796365    -1.08700
C109        C  0.42254137  0.95243813  0.14781430     1.06000
C110        C  0.57245552  0.08317667  0.14875492     1.08600
C111        C  0.35773931  0.01316463  0.26075585     1.06100
C112        C  0.49614307  0.87667573  0.23255896     1.06500
C113        C  0.63740100  0.01593298  0.25545553     1.06100
C114        C  0.49953610  0.15505556  0.23817779     1.05600
C115        C  0.42175557  0.08243172  0.15067420     1.06100
C116        C  0.56709884  0.94902744  0.14716963     1.05600
H117        H  0.49809745  0.09471925  0.19165642     0.32300
O118        O  0.49809527  0.07230734  0.20855200    -1.30300
H119        H  0.49613897  0.93994768  0.18946703     0.32300
O120        O  0.49673075  0.96178651  0.20693803    -1.31700
C121        C  0.29757759  0.81261439  0.00533009     0.85900
C122        C  0.31108437  0.82945723  0.96630388    -0.54400
C123        C  0.31489287  0.86901229  0.96579629     0.08800
C124        C  0.30230670  0.88856364  0.00415620     0.19700
C125        C  0.32570939  0.82981879  0.03530828    -0.55100
C126        C  0.32736795  0.86957952  0.03560527     0.08900
C127        C  0.25871368  0.83296363  0.01203500    -0.54600
C128        C  0.26115455  0.87222767  0.01309577     0.09500
H129        H  0.31852092  0.81211238  0.94137368     0.14000
H130        H  0.30403271  0.92086830  0.00358365    -0.00300
H131        H  0.34198594  0.81197030  0.05540179     0.14300
H132        H  0.23087605  0.81769096  0.01461915     0.14100
C133        C  0.69036648  0.81746418  0.99504609     0.85900
C134        C  0.66373382  0.83078259  0.02859401    -0.54400
C135        C  0.65720675  0.86988186  0.02939240     0.08800
C136        C  0.67561009  0.89212873  0.99524793     0.19700
C137        C  0.66885878  0.83169250  0.95883510    -0.55100
C138        C  0.66070303  0.87046517  0.95898782     0.08900
C139        C  0.72660020  0.84412834  0.99907178    -0.54600
C140        C  0.71892800  0.88292206  0.99887061     0.09500
H141        H  0.65084215  0.81231427  0.05050158     0.14000
H142        H  0.66978905  0.92383822  0.99507290    -0.00300
H143        H  0.65946751  0.81234052  0.93572822     0.14300
H144        H  0.75591815  0.83318734  0.00226152     0.14100
C145        C  0.68692474  0.81314714  0.49415123     0.85900
C146        C  0.67072451  0.83330437  0.45822297    -0.54400
C147        C  0.63210003  0.84123575  0.46028213     0.08800
C148        C  0.61256410  0.82782927  0.49822015     0.19700
C149        C  0.67571610  0.83969250  0.52825730    -0.55100
C150        C  0.63670213  0.84769410  0.53064065     0.08900
C151        C  0.66038926  0.77691019  0.50056028    -0.54600
C152        C  0.62172824  0.78455158  0.50258292     0.09500
H153        H  0.68874961  0.84219706  0.43386877     0.14000
H154        H  0.58082254  0.83306796  0.49912131    -0.00300
H155        H  0.69721872  0.85140242  0.54786947     0.14300
H156        H  0.67090862  0.74770273  0.50547468     0.14100
C157        C  0.29779887  0.20773574  0.99766156     0.85900
C158        C  0.32011552  0.19270776  0.03300443    -0.54400
C159        C  0.32705250  0.15380181  0.03239077     0.08800
C160        C  0.31139238  0.13292485  0.99613543     0.19700
C161        C  0.32236908  0.19443971  0.96249711    -0.55100
C162        C  0.33034967  0.15546402  0.96234317     0.08900
C163        C  0.26114167  0.18191280  0.99430197    -0.54600
C164        C  0.26794296  0.14296941  0.99313222     0.09500
H165        H  0.33037994  0.21152931  0.05619620     0.14000
H166        H  0.31706784  0.10118758  0.99599515    -0.00300
H167        H  0.33103351  0.21279465  0.93844825     0.14300
H168        H  0.23208612  0.19361086  0.99144834     0.14100
C169        C  0.68339392  0.21155407  0.98676052     0.85900
C170        C  0.65747077  0.19259226  0.95579027    -0.54400
C171        C  0.65597677  0.15293108  0.95757851     0.08800
C172        C  0.68061832  0.13532801  0.99021435     0.19700
C173        C  0.66735220  0.19502572  0.02529513    -0.55100
C174        C  0.66497791  0.15523178  0.02706591     0.08900
C175        C  0.72294630  0.19240985  0.98331360    -0.54600
C176        C  0.72195259  0.15300621  0.98430018     0.09500
H177        H  0.64153488  0.20913926  0.93434797     0.14000
H178        H  0.67925191  0.10302002  0.99097566    -0.00300
H179        H  0.65798344  0.21235862  0.04950673     0.14300
H180        H  0.75016560  0.20886255  0.98108922     0.14100
C181        C  0.29596411  0.20756336  0.49519771     0.85900
C182        C  0.30841896  0.18235940  0.46062040    -0.54400
C183        C  0.34688214  0.17294790  0.46106850     0.08800
C184        C  0.36966666  0.18920076  0.49552498     0.19700
C185        C  0.30914641  0.18461383  0.53142574    -0.55100
C186        C  0.34702233  0.17348337  0.53076157     0.08900
C187        C  0.32409675  0.24272868  0.49526461    -0.54600
C188        C  0.36246528  0.23330164  0.49479250     0.09500
H189        H  0.28864021  0.17301902  0.43782530     0.14000
H190        H  0.40093898  0.18155707  0.49500913    -0.00300
H191        H  0.29139200  0.17844215  0.55657159     0.14300
H192        H  0.31456607  0.27272145  0.49553834     0.14100
C193        C  0.29515660  0.81730213  0.49022424     0.85900
C194        C  0.31463166  0.83475901  0.52612366    -0.54400
C195        C  0.35419500  0.83423643  0.52568597     0.08800
C196        C  0.37140452  0.81622137  0.48858134     0.19700
C197        C  0.31346297  0.84147912  0.45682753    -0.55100
C198        C  0.35344457  0.84028360  0.45568299     0.08900
C199        C  0.31213058  0.77706905  0.48461348    -0.54600
C200        C  0.35152336  0.77579258  0.48411315     0.09500
H201        H  0.29833568  0.84825190  0.54927210     0.14000
H202        H  0.40368299  0.81550751  0.48847244    -0.00300
H203        H  0.29744858  0.85854565  0.43607043     0.14300
H204        H  0.29396798  0.75102734  0.48139479     0.14100
O205        O  0.86764754  0.76388572  0.45613069    -0.87100
O206        O  0.02326970  0.75395292  0.61322956    -0.87300
O207        O  0.90936540  0.69616518  0.56467970    -0.88900
O208        O  0.91431897  0.82115606  0.57117500    -0.87700
O209        O  0.94285337  0.86967917  0.53530843    -0.87300
O210        O  0.94528401  0.64908167  0.53519148    -0.88700
O211        O  0.95670080  0.75354030  0.61272009    -0.87100
O212        O  0.86746712  0.76662679  0.52261181    -0.86700
Zr213      Zr  0.93456897  0.75916532  0.54531144     2.84300
O214        O  0.98926107  0.80016758  0.54639739    -1.08700
O215        O  0.93493610  0.71857983  0.49079436    -1.09400
C216        C  0.85063710  0.76843265  0.48917428     1.06000
C217        C  0.98988917  0.75053564  0.63017264     1.05900
C218        C  0.91783991  0.66049003  0.55785925     1.08900
C219        C  0.91988238  0.85730129  0.56251054     1.06700
H220        H  0.99026768  0.70403676  0.56838887     0.32300
O221        O  0.99032984  0.72090982  0.54603760    -1.29700
H222        H  0.91229301  0.81389001  0.48882802     0.31900
O223        O  0.93472972  0.79741606  0.48934607    -1.31300
O224        O  0.11210516  0.77521233  0.52598974    -0.87100
O225        O  0.96089970  0.75293016  0.36835841    -0.88600
O226        O  0.03727554  0.65112212  0.53601549    -0.87200
O227        O  0.03093878  0.87238636  0.53837949    -0.87200
O228        O  0.94451225  0.86731578  0.44383402    -0.86900
O229        O  0.94541196  0.64572823  0.44921319    -0.86700
O230        O  0.07599661  0.70140356  0.42130086    -0.87100
O231        O  0.06308549  0.82651379  0.40978966    -0.86600
O232        O  0.04004755  0.65195834  0.44958717    -0.87600
O233        O  0.03051056  0.87305303  0.44332492    -0.86800
O234        O  0.07281174  0.69962789  0.56518782    -0.87200
O235        O  0.90913189  0.69139976  0.41736872    -0.86900
O236        O  0.91643954  0.81853029  0.40706929    -0.86600
O237        O  0.06055403  0.82523107  0.57487272    -0.87000
O238        O  0.11248880  0.77563289  0.45977298    -0.87300
O239        O  0.02719781  0.75866218  0.37097649    -0.88600
Zr240      Zr  0.04522895  0.76219773  0.54685099     2.83100
Zr241      Zr  0.93524473  0.75656155  0.43466062     2.83500
Zr242      Zr  0.99142241  0.68122411  0.49137152     2.84100
Zr243      Zr  0.98872711  0.83936808  0.49085694     2.83400
Zr244      Zr  0.04635869  0.76295663  0.43776404     2.84200
O245        O  0.98956823  0.79886045  0.43645053    -1.09200
O246        O  0.04666466  0.72261032  0.49219047    -1.08700
C247        C  0.12902897  0.78035227  0.49293096     1.06000
C248        C  0.99506942  0.75413126  0.35240016     1.08600
C249        C  0.06488198  0.66325976  0.55858279     1.06100
C250        C  0.05264227  0.86088453  0.56670376     1.06500
C251        C  0.92290474  0.85453899  0.41589797     1.06100
C252        C  0.91757225  0.65576608  0.42618066     1.05600
C253        C  0.06837155  0.66519359  0.42849394     1.06100
C254        C  0.05396585  0.86225334  0.41619120     1.05600
H255        H  0.99332760  0.70314443  0.41351832     0.32300
O256        O  0.99216899  0.71998806  0.43578123    -1.30300
H257        H  0.06641157  0.82128246  0.49245416     0.32300
O258        O  0.04495924  0.80280533  0.49224911    -1.31700
O259        O  0.87029106  0.24903529  0.47224878    -0.87100
O260        O  0.02919031  0.26707598  0.62401058    -0.87300
O261        O  0.92262552  0.19233452  0.58403067    -0.88900
O262        O  0.91233677  0.31811831  0.58089295    -0.87700
O263        O  0.94521523  0.36817630  0.55014752    -0.87300
O264        O  0.95268810  0.14692188  0.54609339    -0.88700
O265        O  0.96288756  0.26289757  0.62444489    -0.87100
O266        O  0.87337651  0.24668077  0.53848571    -0.86700
Zr267      Zr  0.93970969  0.25701106  0.55875372     2.84300
O268        O  0.99377815  0.29910925  0.55934106    -1.08700
O269        O  0.93818625  0.21944202  0.50247725    -1.09400
C270        C  0.85514094  0.24424301  0.50609637     1.06000
C271        C  0.99589548  0.26744352  0.64150847     1.05900
C272        C  0.93043452  0.15692425  0.57455231     1.08900
C273        C  0.91917967  0.35447412  0.57352977     1.06700
H274        H  0.99631063  0.20383325  0.57904001     0.32300
O275        O  0.99569767  0.22018117  0.55631253    -1.29700
H276        H  0.91231706  0.31286509  0.50593756     0.31900
O277        O  0.93605702  0.29824669  0.50503471    -1.31300
O278        O  0.11585960  0.25590810  0.53165417    -0.87100
O279        O  0.95553912  0.27401130  0.38234200    -0.88600
O280        O  0.03890398  0.15151032  0.54374355    -0.87200
O281        O  0.03818713  0.37234235  0.54828299    -0.87200
O282        O  0.94482948  0.37163399  0.46171214    -0.86900
O283        O  0.95132794  0.15122959  0.45254546    -0.86700
O284        O  0.06763739  0.20537836  0.41738085    -0.87100
O285        O  0.06881115  0.33097747  0.42799077    -0.86600
O286        O  0.04109803  0.15546759  0.45374189    -0.87600
O287        O  0.03230193  0.37575231  0.46067155    -0.86800
O288        O  0.06963369  0.19787437  0.58052392    -0.87200
O289        O  0.91796895  0.19812015  0.42000573    -0.86900
O290        O  0.91026925  0.32369996  0.43057233    -0.86600
O291        O  0.07648988  0.32551415  0.57576897    -0.87000
O292        O  0.11477673  0.25866526  0.46540301    -0.87300
O293        O  0.02217950  0.27766746  0.38101980    -0.88600
Zr294      Zr  0.05008101  0.26188849  0.55656661     2.83100
Zr295      Zr  0.93610876  0.26072579  0.44869616     2.83500
Zr296      Zr  0.99452530  0.18276215  0.49957664     2.84100
Zr297      Zr  0.99096669  0.33990929  0.50530937     2.83400
Zr298      Zr  0.04683989  0.26592979  0.44615046     2.84200
O299        O  0.99041101  0.30238261  0.44925906    -1.09200
O300        O  0.04885748  0.22468301  0.49997656    -1.08700
C301        C  0.13218199  0.25369923  0.49816373     1.06000
C302        C  0.98827254  0.28040052  0.36506310     1.08600
C303        C  0.06183479  0.16199559  0.57139400     1.06100
C304        C  0.06713446  0.36129367  0.56941980     1.06500
C305        C  0.91823806  0.35988160  0.43773592     1.06100
C306        C  0.92714118  0.16225889  0.42623538     1.05600
C307        C  0.06294274  0.16909883  0.42622332     1.06100
C308        C  0.05874659  0.36595268  0.43640056     1.05600
H309        H  0.99260283  0.20929119  0.42146841     0.32300
O310        O  0.99256859  0.22394632  0.44524048    -1.30300
H311        H  0.07100097  0.31979901  0.50219095     0.32300
O312        O  0.04806847  0.30317756  0.50259649    -1.31700
C313        C  0.79279161  0.51070020  0.69005815     0.85900
C314        C  0.81114932  0.47278138  0.67621784    -0.54400
C315        C  0.82027844  0.47210647  0.63771587     0.08800
C316        C  0.80937878  0.50980022  0.61619356     0.19700
C317        C  0.82090031  0.54355989  0.67709153    -0.55100
C318        C  0.82992229  0.54235078  0.63877754     0.08900
C319        C  0.75745993  0.51645404  0.66315458    -0.54600
C320        C  0.76607534  0.51581378  0.62483684     0.09500
H321        H  0.81753495  0.44890102  0.69574620     0.14000
H322        H  0.81685121  0.51034072  0.58498022    -0.00300
H323        H  0.83192300  0.56628713  0.69614005     0.14300
H324        H  0.72805110  0.52223830  0.67245504     0.14100
C325        C  0.18423975  0.51788639  0.70123288     0.85900
C326        C  0.16003728  0.55130505  0.68401106    -0.54400
C327        C  0.15887736  0.55203826  0.64433544     0.08800
C328        C  0.18045643  0.51812687  0.62546144     0.19700
C329        C  0.16417264  0.48130494  0.68373551    -0.55100
C330        C  0.16160276  0.48142818  0.64436119     0.08900
C331        C  0.22365955  0.52064408  0.68103422    -0.54600
C332        C  0.22243179  0.52174354  0.64181174     0.09500
H333        H  0.14314978  0.57094977  0.70144430     0.14000
H334        H  0.17848712  0.51881114  0.59350984    -0.00300
H335        H  0.14959860  0.45868044  0.70040292     0.14300
H336        H  0.25089673  0.52277318  0.69698568     0.14100
C337        C  0.80338576  0.01109071  0.29281848     0.85900
C338        C  0.81562956  0.97694623  0.31910215    -0.54400
C339        C  0.85411519  0.97705251  0.32808428     0.08800
C340        C  0.87780557  0.01013174  0.30929740     0.19700
C341        C  0.81850074  0.04757255  0.31392488    -0.55100
C342        C  0.85731756  0.04748626  0.32229411     0.08900
C343        C  0.82993259  0.00610576  0.25755769    -0.54600
C344        C  0.86881777  0.00592127  0.26593602     0.09500
H345        H  0.79726219  0.95261626  0.32784117     0.14000
H346        H  0.90932459  0.00931907  0.31642724    -0.00300
H347        H  0.79927403  0.07015597  0.32394674     0.14300
H348        H  0.81891924  0.00035054  0.22867995     0.14100
C349        C  0.78976686  0.00524003  0.68988019     0.85900
C350        C  0.80906867  0.04444925  0.67757560    -0.54400
C351        C  0.84838555  0.04309190  0.67173562     0.08800
C352        C  0.86564086  0.00333102  0.68348087     0.19700
C353        C  0.80442705  0.97593195  0.65978498    -0.55100
C354        C  0.84417913  0.97448838  0.65657500     0.08900
C355        C  0.81067755  0.99544682  0.72739207    -0.54600
C356        C  0.84982020  0.99339989  0.72453024     0.09500
H357        H  0.79376444  0.07112724  0.67241419     0.14000
H358        H  0.89778994  0.00216060  0.68222528    -0.00300
H359        H  0.78488962  0.95745408  0.64293959     0.14300
H360        H  0.79559598  0.99147668  0.75477250     0.14100
C361        C  0.79675710  0.50370353  0.29451215     0.85900
C362        C  0.81380036  0.54017273  0.31398842    -0.54400
C363        C  0.81708978  0.53791457  0.35326329     0.08800
C364        C  0.80009484  0.49912309  0.36998164     0.19700
C365        C  0.82275548  0.47028941  0.31020153    -0.55100
C366        C  0.82425240  0.46832685  0.34974277     0.08900
C367        C  0.75761400  0.49604218  0.31362121    -0.54600
C368        C  0.75858454  0.49214723  0.35254321     0.09500
H369        H  0.82701395  0.56387160  0.29755505     0.14000
H370        H  0.80170123  0.49707135  0.40197409    -0.00300
H371        H  0.83977061  0.45061834  0.29302386     0.14300
H372        H  0.73085639  0.49327950  0.29703973     0.14100
C373        C  0.19444203  0.50988083  0.30908892     0.85900
C374        C  0.16591405  0.47777163  0.32485001    -0.54400
C375        C  0.15851199  0.48024565  0.36376220     0.08800
C376        C  0.17950208  0.51463564  0.38318739     0.19700
C377        C  0.17481102  0.54777053  0.32112532    -0.55100
C378        C  0.16690623  0.55021703  0.35960793     0.08900
C379        C  0.23013492  0.50600865  0.33515849    -0.54600
C380        C  0.22250172  0.50773954  0.37366948     0.09500
H381        H  0.15234878  0.45481847  0.30807797     0.14000
H382        H  0.17291266  0.51812970  0.41424504    -0.00300
H383        H  0.16550623  0.56967295  0.30056858     0.14300
H384        H  0.25890780  0.49963818  0.32409976     0.14100
C385        C  0.19107938  0.01792950  0.30153750     0.85900
C386        C  0.17851124  0.05227800  0.32690747    -0.54400
C387        C  0.13917734  0.05586940  0.33053529     0.08800
C388        C  0.11551284  0.02375491  0.30963474     0.19700
C389        C  0.17118481  0.98202789  0.32106374    -0.55100
C390        C  0.13175582  0.98522243  0.32588918     0.08900
C391        C  0.16863204  0.02192404  0.26353268    -0.54600
C392        C  0.12952103  0.02621234  0.26710046     0.09500
H393        H  0.19909169  0.07241276  0.34037427     0.14000
H394        H  0.08375385  0.02643984  0.31371886    -0.00300
H395        H  0.18601490  0.95640435  0.33117904     0.14300
H396        H  0.18302977  0.02242280  0.23557073     0.14100
C397        C  0.17972292  0.00566469  0.70199109     0.85900
C398        C  0.16431861  0.97064291  0.67871413    -0.54400
C399        C  0.12561036  0.97228894  0.66987975     0.08800
C400        C  0.10546931  0.00896547  0.68553437     0.19700
C401        C  0.16833106  0.04050048  0.67599192    -0.55100
C402        C  0.12954616  0.04284927  0.66863467     0.08900
C403        C  0.15327183  0.00850573  0.73735099    -0.54600
C404        C  0.11456372  0.01082960  0.72906304     0.09500
H405        H  0.18274965  0.94742065  0.66859174     0.14000
H406        H  0.07406923  0.01067267  0.67836073    -0.00300
H407        H  0.18879127  0.05990719  0.66153876     0.14300
H408        H  0.16458929  0.01120184  0.76659270     0.14100
O409        O  0.74030081  0.63725601  0.96148839    -0.87100
O410        O  0.75330928  0.47675423  0.11231909    -0.87300
O411        O  0.68620176  0.58705745  0.07686837    -0.88900
O412        O  0.81189008  0.59111716  0.06864191    -0.87700
O413        O  0.85732607  0.55418358  0.03819097    -0.87300
O414        O  0.63709134  0.56006431  0.04001415    -0.88700
O415        O  0.75656864  0.54343394  0.11422890    -0.87100
O416        O  0.73998395  0.63518521  0.02774797    -0.86700
Zr417      Zr  0.74786922  0.56782948  0.04868424     2.84300
O418        O  0.78474198  0.51136381  0.04685058    -1.08700
O419        O  0.70867798  0.56970393  0.99368189    -1.09400
C420        C  0.73635874  0.65309173  0.99506432     1.06000
C421        C  0.75881035  0.50939129  0.12996705     1.05900
C422        C  0.64998511  0.58126148  0.06828489     1.08900
C423        C  0.84735907  0.58135801  0.06175646     1.06700
H424        H  0.69129982  0.51325927  0.07191809     0.32300
O425        O  0.70639513  0.51336448  0.04840865    -1.29700
H426        H  0.80393259  0.59197069  0.99453316     0.31900
O427        O  0.78734468  0.56903905  0.99367268    -1.31300
O428        O  0.72896658  0.39168330  0.02169719    -0.87100
O429        O  0.75552871  0.54943700  0.87153064    -0.88600
O430        O  0.63347874  0.47245691  0.04069196    -0.87200
O431        O  0.85347673  0.46461708  0.03500295    -0.87200
O432        O  0.85881424  0.55858903  0.95024019    -0.86900
O433        O  0.63814192  0.56239420  0.94925985    -0.86700
O434        O  0.67685523  0.44255241  0.91112820    -0.87100
O435        O  0.80430363  0.43030455  0.91857953    -0.86600
O436        O  0.63086883  0.47365414  0.94753435    -0.87600
O437        O  0.85361727  0.46516737  0.94833759    -0.86800
O438        O  0.68054423  0.43964677  0.07389053    -0.87200
O439        O  0.68602500  0.59306143  0.91410709    -0.86900
O440        O  0.81298792  0.59728783  0.92164178    -0.86600
O441        O  0.80515190  0.42879197  0.06410523    -0.87000
O442        O  0.72832158  0.39355215  0.95548479    -0.87300
O443        O  0.75021169  0.48261051  0.87025804    -0.88600
Zr444      Zr  0.74316821  0.45692743  0.04579264     2.83100
Zr445      Zr  0.74824094  0.57085050  0.93846102     2.83500
Zr446      Zr  0.66637146  0.51560387  0.99348901     2.84100
Zr447      Zr  0.82387170  0.51185389  0.99179324     2.83400
Zr448      Zr  0.74207184  0.45987194  0.93600032     2.84200
O449        O  0.78462287  0.51400043  0.93658488    -1.09200
O450        O  0.70311449  0.45923646  0.99135157    -1.08700
C451        C  0.72349912  0.37609866  0.98817283     1.06000
C452        C  0.75567802  0.51613650  0.85422096     1.08600
C453        C  0.64488085  0.44894080  0.06769060     1.06100
C454        C  0.84142717  0.43692884  0.05748690     1.06500
C455        C  0.84858019  0.58781310  0.92907459     1.06100
C456        C  0.65000929  0.58620094  0.92261082     1.05600
C457        C  0.64123564  0.45045209  0.92009179     1.06100
C458        C  0.84061427  0.43757754  0.92626180     1.05600
H459        H  0.68984649  0.51755240  0.91456454     0.32300
O460        O  0.70569717  0.51661309  0.93759803    -1.30300
H461        H  0.79634708  0.43304706  0.99048207     0.32300
O462        O  0.78199633  0.45693970  0.99068179    -1.31700
O463        O  0.25278927  0.63376774  0.97340906    -0.87100
O464        O  0.23757379  0.47494990  0.12548834    -0.87300
O465        O  0.18410603  0.59443205  0.07877750    -0.88900
O466        O  0.31193980  0.58041180  0.08756248    -0.87700
O467        O  0.35759003  0.55028421  0.05067127    -0.87300
O468        O  0.13572287  0.56203133  0.04580554    -0.88700
O469        O  0.23936510  0.54159709  0.12789198    -0.87100
O470        O  0.25449674  0.63165151  0.03981038    -0.86700
Zr471      Zr  0.24643516  0.56501957  0.06128283     2.84300
O472        O  0.28292974  0.50859153  0.05870061    -1.08700
O473        O  0.20673704  0.56746892  0.00612435    -1.09400
C474        C  0.25653955  0.64950450  0.00706255     1.06000
C475        C  0.23589050  0.50757078  0.14384287     1.05900
C476        C  0.14793804  0.58848722  0.06939972     1.08900
C477        C  0.34778789  0.57222569  0.07929497     1.06700
H478        H  0.18681971  0.51090501  0.08248972     0.32300
O479        O  0.20365129  0.51095145  0.06016499    -1.29700
H480        H  0.30308918  0.58807148  0.00522353     0.31900
O481        O  0.28516037  0.56614168  0.00508265    -1.31300
O482        O  0.24860689  0.38758437  0.03535342    -0.87100
O483        O  0.23418317  0.54688305  0.88290408    -0.88600
O484        O  0.12998015  0.46727497  0.04757742    -0.87200
O485        O  0.35172437  0.46363533  0.04746408    -0.87200
O486        O  0.35460205  0.55169635  0.95510703    -0.86900
O487        O  0.13374151  0.56029970  0.96124702    -0.86700
O488        O  0.17725540  0.43479512  0.92864459    -0.87100
O489        O  0.30242747  0.43879470  0.92016084    -0.86600
O490        O  0.13100331  0.47195670  0.95843332    -0.87600
O491        O  0.35160426  0.46723031  0.95504240    -0.86800
O492        O  0.17599513  0.42861274  0.07597572    -0.87200
O493        O  0.18228840  0.59491332  0.93111255    -0.86900
O494        O  0.30742366  0.58453343  0.92164099    -0.86600
O495        O  0.30311357  0.43465068  0.08383732    -0.87000
O496        O  0.24876655  0.38963198  0.96903540    -0.87300
O497        O  0.23448163  0.48041078  0.88248376    -0.88600
Zr498      Zr  0.24072533  0.45431679  0.05817210     2.83100
Zr499      Zr  0.24464802  0.56769223  0.95002585     2.83500
Zr500      Zr  0.16456468  0.51334265  0.00485324     2.84100
Zr501      Zr  0.32231029  0.50999361  0.00323387     2.83400
Zr502      Zr  0.24114621  0.45731417  0.94868238     2.84200
O503        O  0.28238858  0.51189046  0.94840211    -1.09200
O504        O  0.20098296  0.45599024  0.00333118    -1.08700
C505        C  0.25266171  0.37176400  0.00172823     1.06000
C506        C  0.23042054  0.51360553  0.86559469     1.08600
C507        C  0.14039935  0.43853790  0.06933313     1.06100
C508        C  0.33904573  0.44104580  0.07474489     1.06500
C509        C  0.34299231  0.57496792  0.92817008     1.06100
C510        C  0.14593047  0.58734496  0.93789358     1.05600
C511        C  0.14199721  0.44526892  0.93493251     1.06100
C512        C  0.33872947  0.44529819  0.92723841     1.05600
H513        H  0.18623927  0.51405628  0.92786261     0.32300
O514        O  0.20338893  0.51324137  0.94992229    -1.30300
H515        H  0.29752718  0.43328056  0.00263811     0.32300
O516        O  0.28090928  0.45561629  0.00329786    -1.31700
C517        C  0.99963501  0.70884658  0.79556067     0.85900
C518        C  0.03402535  0.68470257  0.81093431    -0.54400
C519        C  0.03676274  0.68319924  0.85055683     0.08800
C520        C  0.00419111  0.70527380  0.87119537     0.19700
C521        C  0.96396028  0.68899084  0.81530029    -0.55100
C522        C  0.96640716  0.68633032  0.85469187     0.08900
C523        C  0.00328108  0.74832096  0.81539529    -0.54600
C524        C  0.00692594  0.74726612  0.85437135     0.09500
H525        H  0.05233890  0.66766522  0.79220856     0.14000
H526        H  0.00673175  0.70351132  0.90306818    -0.00300
H527        H  0.94041358  0.67422822  0.80025223     0.14300
H528        H  0.00357299  0.77558896  0.79934161     0.14100
C529        C  0.99671289  0.31276744  0.80551487     0.85900
C530        C  0.95895430  0.33236329  0.81905553    -0.54400
C531        C  0.95800074  0.34053951  0.85761029     0.08800
C532        C  0.99457454  0.32768101  0.87962961     0.19700
C533        C  0.02856340  0.34193686  0.81942622    -0.55100
C534        C  0.02815749  0.34857635  0.85849691     0.08900
C535        C  0.00040132  0.27692211  0.83133321    -0.54600
C536        C  0.00054677  0.28445002  0.86990533     0.09500
H537        H  0.93608350  0.34181836  0.79972251     0.14000
H538        H  0.99301305  0.33437034  0.91090981    -0.00300
H539        H  0.04967827  0.35583850  0.80034811     0.14300
H540        H  0.00409927  0.24781918  0.81979969     0.14100
C541        C  0.49112834  0.70210129  0.79517020     0.85900
C542        C  0.45376983  0.68599449  0.81371450    -0.54400
C543        C  0.45527422  0.64789757  0.82495624     0.08800
C544        C  0.49367511  0.62813575  0.81348924     0.19700
C545        C  0.52411188  0.69141640  0.82389718    -0.55100
C546        C  0.52500180  0.65297230  0.83349979     0.08900
C547        C  0.49884297  0.67543302  0.76092176    -0.54600
C548        C  0.50031974  0.63693017  0.77018363     0.09500
H549        H  0.42860991  0.70395996  0.81837589     0.14000
H550        H  0.49522551  0.59669652  0.82071481    -0.00300
H551        H  0.54699728  0.71081378  0.83406699     0.14300
H552        H  0.50314658  0.68613485  0.73162874     0.14100
C553        C  0.50160345  0.71055968  0.19382570     0.85900
C554        C  0.53273045  0.69731153  0.16514852    -0.54400
C555        C  0.53569291  0.65787827  0.16219434     0.08800
C556        C  0.50716043  0.63485418  0.18814665     0.19700
C557        C  0.46386904  0.68954290  0.17934909    -0.55100
C558        C  0.46670291  0.64988342  0.17600548     0.08900
C559        C  0.51063996  0.68998592  0.23196472    -0.54600
C560        C  0.51499443  0.65097750  0.22925680     0.09500
H561        H  0.55161920  0.71751262  0.14952427     0.14000
H562        H  0.50988733  0.60275854  0.18589223    -0.00300
H563        H  0.43763372  0.70388706  0.17025524     0.14300
H564        H  0.51307397  0.70523851  0.25938269     0.14100
C565        C  0.98570813  0.31777585  0.19956645     0.85900
C566        C  0.02211644  0.33717883  0.18172600    -0.54400
C567        C  0.02209931  0.33930631  0.14218063     0.08800
C568        C  0.98489162  0.32108196  0.12375549     0.19700
C569        C  0.95214223  0.34208823  0.18252193    -0.55100
C570        C  0.95166685  0.34332327  0.14292234     0.08900
C571        C  0.98074601  0.27844749  0.17982760    -0.54600
C572        C  0.98075934  0.27952665  0.14069814     0.09500
H573        H  0.04529232  0.34983868  0.19927490     0.14000
H574        H  0.98422681  0.32238355  0.09168167    -0.00300
H575        H  0.93138193  0.35841525  0.19906762     0.14300
H576        H  0.97784578  0.25124476  0.19581600     0.14100
C577        C  0.99757844  0.72142333  0.18569985     0.85900
C578        C  0.96657914  0.68981124  0.17643762    -0.54400
C579        C  0.96322015  0.68053339  0.13800954     0.08800
C580        C  0.99377873  0.70193122  0.11273606     0.19700
C581        C  0.03513088  0.70327689  0.16978246    -0.55100
C582        C  0.03322198  0.69323664  0.13181431     0.08900
C583        C  0.98924826  0.75542759  0.15814977    -0.54600
C584        C  0.98664802  0.74503371  0.12025214     0.09500
H585        H  0.95005602  0.67552326  0.19905573     0.14000
H586        H  0.99271797  0.69489367  0.08148225    -0.00300
H587        H  0.05966288  0.69428046  0.18705676     0.14300
H588        H  0.98547816  0.78518156  0.16785982     0.14100
C589        C  0.48509623  0.30886160  0.80693937     0.85900
C590        C  0.52389209  0.32598307  0.82290744    -0.54400
C591        C  0.52466489  0.36560944  0.82782745     0.08800
C592        C  0.48738586  0.38505849  0.81168994     0.19700
C593        C  0.45359822  0.32586189  0.83319522    -0.55100
C594        C  0.45460741  0.36558746  0.83557991     0.08900
C595        C  0.48100797  0.32957347  0.76839555    -0.54600
C596        C  0.48145882  0.36900233  0.76992787     0.09500
H597        H  0.54915235  0.30890476  0.82904420     0.14000
H598        H  0.48755140  0.41730727  0.81331000    -0.00300
H599        H  0.43209846  0.30798191  0.84829891     0.14300
H600        H  0.47806367  0.31390034  0.74123850     0.14100
C601        C  0.49661749  0.32001310  0.19721123     0.85900
C602        C  0.45952453  0.33250495  0.17517504    -0.54400
C603        C  0.45722089  0.37156711  0.16880696     0.08800
C604        C  0.49199257  0.39511232  0.18501012     0.19700
C605        C  0.53035308  0.33722486  0.17329140    -0.55100
C606        C  0.52792059  0.37622957  0.16655542     0.08900
C607        C  0.49491660  0.34447019  0.23422876    -0.54600
C608        C  0.49290084  0.38362511  0.22823338     0.09500
H609        H  0.43590388  0.31335914  0.16620396     0.14000
H610        H  0.49051951  0.42689169  0.17947995    -0.00300
H611        H  0.55371233  0.31977065  0.16178744     0.14300
H612        H  0.49378153  0.33170435  0.26298548     0.14100
O613        O  0.56777923  0.42231397  0.55200273    -0.87100
O614        O  0.45217640  0.49245424  0.38255834    -0.87300
O615        O  0.47956254  0.38711406  0.46626825    -0.88900
O616        O  0.58263280  0.45812410  0.42776305    -0.87700
O617        O  0.60092881  0.52225170  0.43502337    -0.87300
O618        O  0.42907163  0.39885341  0.50781109    -0.88700
O619        O  0.49714453  0.44468657  0.39234338    -0.87100
O620        O  0.55681808  0.40251333  0.48954412    -0.86700
Zr621      Zr  0.51705463  0.44901771  0.45856448     2.84300
O622        O  0.51260411  0.51296899  0.43603892    -1.08700
O623        O  0.49592042  0.44501736  0.52284619    -1.09400
C624        C  0.57123338  0.39809013  0.52335807     1.06000
C625        C  0.47329377  0.46368146  0.37118634     1.05900
C626        C  0.44924056  0.37630558  0.48623807     1.08900
C627        C  0.60739372  0.48713422  0.42438172     1.06700
H628        H  0.43534392  0.45196839  0.44726084     0.32300
O629        O  0.45187755  0.46867776  0.46285486    -1.29700
H630        H  0.58272716  0.48088132  0.49637214     0.31900
O631        O  0.55626912  0.48983895  0.49656659    -1.31300
O632        O  0.41576882  0.59726941  0.44826305    -0.87100
O633        O  0.53198288  0.52438727  0.61970729    -0.88600
O634        O  0.37041328  0.47104597  0.49164501    -0.87200
O635        O  0.54172095  0.57930799  0.40527710    -0.87200
O636        O  0.61249164  0.55262986  0.51350346    -0.86900
O637        O  0.44139458  0.43406008  0.59231430    -0.86700
O638        O  0.40080705  0.56245429  0.57181547    -0.87100
O639        O  0.50613164  0.63156864  0.53786329    -0.86600
O640        O  0.38571523  0.49734499  0.56809881    -0.87600
O641        O  0.55452254  0.62151855  0.49311507    -0.86800
O642        O  0.38124283  0.51352105  0.44113405    -0.87200
O643        O  0.50481827  0.44698903  0.60918247    -0.86900
O644        O  0.59961199  0.51113579  0.56411579    -0.86600
O645        O  0.47690156  0.57282671  0.39181172    -0.87000
O646        O  0.42747403  0.61726790  0.51052824    -0.87300
O647        O  0.48911641  0.57403841  0.60902483    -0.88600
Zr648      Zr  0.44829800  0.53341711  0.44113598     2.83100
Zr649      Zr  0.53479491  0.48609927  0.56026848     2.83500
Zr650      Zr  0.43192540  0.46584702  0.52794021     2.84100
Zr651      Zr  0.55251871  0.55403595  0.47306466     2.83400
Zr652      Zr  0.46706894  0.57092238  0.54270076     2.84200
O653        O  0.53160279  0.55046654  0.53778926    -1.09200
O654        O  0.42782369  0.52986598  0.50520831    -1.08700
C655        C  0.41261190  0.62159620  0.47678445     1.06000
C656        C  0.51220264  0.55412649  0.63045855     1.08600
C657        C  0.35939001  0.49139661  0.46211368     1.06100
C658        C  0.51169279  0.58226740  0.38221170     1.06500
C659        C  0.62251440  0.53303421  0.54404295     1.06100
C660        C  0.47111885  0.43173627  0.61554236     1.05600
C661        C  0.37748440  0.53258145  0.57681007     1.06100
C662        C  0.53534631  0.64292299  0.51674689     1.05600
H663        H  0.46158296  0.50630150  0.59180806     0.32300
O664        O  0.47073499  0.50709505  0.56545082    -1.30300
H665        H  0.48706926  0.60052413  0.46803324     0.32300
O666        O  0.48828089  0.57436271  0.47811690    -1.31700
O667        O  0.08515132  0.94068306  0.04306549    -0.87100
O668        O  0.00478784  0.05916674  0.87960122    -0.87300
O669        O  0.04319097  0.92630015  0.92363758    -0.88900
O670        O  0.11133287  0.03242356  0.95883087    -0.87700
O671        O  0.10258672  0.07824105  0.00617754    -0.87300
O672        O  0.97854256  0.90945958  0.92779031    -0.88700
O673        O  0.05379595  0.01500186  0.88721415    -0.87100
O674        O  0.09771856  0.95007132  0.97914469    -0.86700
Zr675      Zr  0.05117977  0.99239523  0.95266422     2.84300
O676        O  0.03040958  0.05666760  0.95931470    -1.08700
O677        O  0.01163978  0.95110324  0.98915061    -1.09400
C678        C  0.10755943  0.93847782  0.01266611     1.06000
C679        C  0.03382525  0.03913513  0.86724484     1.05900
C680        C  0.01393091  0.90223624  0.91896679     1.08900
C681        C  0.12352582  0.06017255  0.98135582     1.06700
H682        H  0.98669997  0.98843274  0.90450059     0.32300
O683        O  0.98721221  0.99664501  0.93112716    -1.29700
H684        H  0.08354565  0.01013647  0.02684302     0.31900
O685        O  0.05708516  0.01085260  0.01756812    -1.31300
O686        O  0.89990025  0.08877131  0.94935745    -0.87100
O687        O  0.98119780  0.96788208  0.11449285    -0.88600
O688        O  0.91854469  0.96692104  0.90138804    -0.87200
O689        O  0.03202823  0.13566382  0.98871976    -0.87200
O690        O  0.06002346  0.06452118  0.09140076    -0.86900
O691        O  0.95157812  0.89302152  0.00259504    -0.86700
O692        O  0.86990590  0.00009136  0.03291176    -0.87100
O693        O  0.93940256  0.10059164  0.07525622    -0.86600
O694        O  0.87964744  0.95448604  0.98552096    -0.87600
O695        O  0.00243345  0.12003300  0.06376913    -0.86800
O696        O  0.92516938  0.03203393  0.88980816    -0.87200
O697        O  0.99732842  0.90130158  0.05071448    -0.86900
O698        O  0.05338114  0.99957179  0.10569871    -0.86600
O699        O  0.98734349  0.12720752  0.93967505    -0.87000
O700        O  0.88346414  0.07557959  0.01222425    -0.87300
O701        O  0.93113705  0.01094796  0.10663972    -0.88600
Zr702      Zr  0.96533024  0.06031204  0.93904829     2.83100
Zr703      Zr  0.01843755  0.96822420  0.05388418     2.83500
Zr704      Zr  0.94716188  0.95560286  0.96758314     2.84100
Zr705      Zr  0.03482852  0.07408885  0.02468241     2.83400
Zr706      Zr  0.93174985  0.03651325  0.04152101     2.84200
O707        O  0.99628203  0.03180042  0.06139196    -1.09200
O708        O  0.92639398  0.01895739  0.97638883    -1.08700
C709        C  0.87643801  0.09009964  0.97879851     1.06000
C710        C  0.95161540  0.98716368  0.12672449     1.08600
C711        C  0.91505432  0.99763876  0.87934264     1.06100
C712        C  0.01160726  0.14773568  0.95975244     1.06500
C713        C  0.06276597  0.03485007  0.11460251     1.06100
C714        C  0.97349639  0.88052171  0.03041014     1.05600
C715        C  0.85810706  0.97309578  0.00930727     1.06100
C716        C  0.96856804  0.12511015  0.07824188     1.05600
H717        H  0.93646941  0.95479509  0.04890872     0.32300
O718        O  0.95269261  0.97215254  0.03363195    -1.30300
H719        H  0.96051109  0.10443293  0.00547009     0.32300
O720        O  0.97012229  0.07827236  0.00366826    -1.31700
C721        C  0.50511331  0.45940252  0.30776831    -0.20900
C722        C  0.47205691  0.45124579  0.33047853    -0.07500
C723        C  0.44406025  0.42404183  0.31715682     0.13400
C724        C  0.45140540  0.40330271  0.28314449    -0.21000
C725        C  0.48514063  0.41033448  0.26099677    -0.07500
C726        C  0.51186061  0.43961345  0.27299187     0.13400
C727        C  0.54895948  0.44891708  0.25154250    -0.24300
H728        H  0.52696170  0.47991310  0.31837323     0.14700
H729        H  0.43105296  0.38052590  0.27441032     0.14700
C730        C  0.40702125  0.41510771  0.33891737    -0.24300
H731        H  0.57434568  0.44301327  0.27044901     0.04900
H732        H  0.54958065  0.48016403  0.24323152     0.08100
H733        H  0.55202341  0.43156462  0.22497580     0.08100
H734        H  0.40367864  0.43340319  0.36501983     0.08100
H735        H  0.40644576  0.38408301  0.34794826     0.08100
H736        H  0.38169859  0.42046243  0.31975643     0.04900
C737        C  0.50575854  0.37941534  0.70410433    -0.20900
C738        C  0.47897281  0.39053529  0.73241941    -0.07500
C739        C  0.44624471  0.41238816  0.72072986     0.13400
C740        C  0.44173737  0.42271113  0.68133152    -0.21000
C741        C  0.46875030  0.41114782  0.65327282    -0.07500
C742        C  0.50036895  0.38796786  0.66503423     0.13400
C743        C  0.52904493  0.37125737  0.63683597    -0.24300
H744        H  0.53018513  0.36155222  0.71236054     0.14700
H745        H  0.41792411  0.44120473  0.67282161     0.14700
C746        C  0.41563023  0.42524120  0.74872484    -0.24300
H747        H  0.53020345  0.33918686  0.64070970     0.04900
H748        H  0.55846438  0.38402289  0.64214949     0.08100
H749        H  0.52078082  0.37664394  0.60637815     0.08100
H750        H  0.41355599  0.45746143  0.74783546     0.08100
H751        H  0.42218425  0.41673312  0.77878564     0.08100
H752        H  0.38701926  0.41217780  0.74057198     0.04900
C753        C  0.93970068  0.82460573  0.06119468    -0.20900
C754        C  0.97239587  0.83917464  0.04140279    -0.07500
C755        C  0.00737785  0.81792378  0.04193572     0.13400
C756        C  0.01005517  0.78494877  0.06558889    -0.21000
C757        C  0.97899822  0.77348228  0.08923178    -0.07500
C758        C  0.94266586  0.79177226  0.08528367     0.13400
C759        C  0.90746554  0.77728560  0.10716216    -0.24300
H760        H  0.91291240  0.84083229  0.06055745     0.14700
H761        H  0.03742888  0.76987552  0.06790536     0.14700
C762        C  0.04276306  0.83127645  0.01941145    -0.24300
H763        H  0.88113142  0.79404641  0.09966219     0.04900
H764        H  0.91249337  0.78026769  0.13862849     0.08100
H765        H  0.90167697  0.74621540  0.10003542     0.08100
H766        H  0.05366184  0.85982210  0.03014952     0.08100
H767        H  0.03532157  0.83397780  0.98841434     0.08100
H768        H  0.06690835  0.81032075  0.02196625     0.04900
C769        C  0.94286103  0.22990713  0.10270681    -0.20900
C770        C  0.97835003  0.24214461  0.11951859    -0.07500
C771        C  0.00763073  0.21452838  0.12570386     0.13400
C772        C  0.00030228  0.17559320  0.11704835    -0.21000
C773        C  0.96591805  0.16310632  0.09847717    -0.07500
C774        C  0.93651058  0.19066099  0.09149498     0.13400
C775        C  0.89887528  0.17894309  0.07225998    -0.24300
H776        H  0.91986096  0.25082311  0.09918330     0.14700
H777        H  0.02327279  0.15493609  0.12244389     0.14700
C778        C  0.04744452  0.22510859  0.14117111    -0.24300
H779        H  0.87922661  0.20407039  0.06877101     0.04900
H780        H  0.88364124  0.15656136  0.09013741     0.08100
H781        H  0.90473411  0.16683773  0.04318329     0.08100
H782        H  0.05182211  0.21076766  0.16959897     0.08100
H783        H  0.05202063  0.25688355  0.14436896     0.08100
H784        H  0.06998468  0.21485315  0.12077920     0.04900
C785        C  0.49106756  0.60173828  0.27447390    -0.20900
C786        C  0.52093757  0.62743765  0.26476598    -0.07500
C787        C  0.55060224  0.63562811  0.29233431     0.13400
C788        C  0.54765509  0.62009437  0.33009996    -0.21000
C789        C  0.51582406  0.59632302  0.34103848    -0.07500
C790        C  0.48759876  0.58636529  0.31177523     0.13400
C791        C  0.45338708  0.55913252  0.31811773    -0.24300
H792        H  0.46863719  0.59558389  0.25312730     0.14700
H793        H  0.56992638  0.62734898  0.35122156     0.14700
C794        C  0.58582979  0.66030823  0.28254995    -0.24300
H795        H  0.43626661  0.55380400  0.29132164     0.04900
H796        H  0.43275436  0.57105802  0.33947967     0.08100
H797        H  0.46463436  0.53080184  0.32706457     0.08100
H798        H  0.58590138  0.68732545  0.30009561     0.08100
H799        H  0.58687618  0.66819001  0.25149443     0.08100
H800        H  0.61258999  0.64381915  0.28905750     0.04900
C801        C  0.48020129  0.58042833  0.73050928    -0.20900
C802        C  0.50921796  0.60771484  0.74035878    -0.07500
C803        C  0.54328235  0.61102832  0.71739723     0.13400
C804        C  0.54523433  0.59045945  0.68254871    -0.21000
C805        C  0.51436317  0.56628694  0.67089357    -0.07500
C806        C  0.48243420  0.55960014  0.69580421     0.13400
C807        C  0.45022464  0.53142797  0.68492607    -0.24300
H808        H  0.45451337  0.57748988  0.74851307     0.14700
H809        H  0.56987840  0.59487498  0.66338954     0.14700
C810        C  0.57760691  0.63607398  0.72948038    -0.24300
H811        H  0.42765928  0.52907208  0.70780785     0.04900
H812        H  0.46267500  0.50221381  0.68045430     0.08100
H813        H  0.43600457  0.54091321  0.65777053     0.08100
H814        H  0.58829814  0.62587531  0.75792907     0.08100
H815        H  0.56965183  0.66710960  0.73146393     0.08100
H816        H  0.60200908  0.63415691  0.70857765     0.04900
C817        C  0.98484599  0.24880357  0.93067869    -0.20900
C818        C  0.00959219  0.25376836  0.89874810    -0.07500
C819        C  0.04075833  0.22749847  0.89347901     0.13400
C820        C  0.04332399  0.19483034  0.91734004    -0.21000
C821        C  0.01625724  0.18795615  0.94660304    -0.07500
C822        C  0.98763746  0.21579719  0.95453824     0.13400
C823        C  0.95899631  0.20949889  0.98695369    -0.24300
H824        H  0.96168988  0.26929237  0.93539081     0.14700
H825        H  0.06525367  0.17324295  0.91148252     0.14700
C826        C  0.07183256  0.23230196  0.86302403    -0.24300
H827        H  0.93848301  0.23401883  0.98939354     0.04900
H828        H  0.97498058  0.20693470  0.01473420     0.08100
H829        H  0.94172379  0.18237912  0.98192155     0.08100
H830        H  0.07116288  0.26090103  0.84856891     0.08100
H831        H  0.06865538  0.20892004  0.84108689     0.08100
H832        H  0.10099458  0.23022623  0.87669946     0.04900
C833        C  0.99406457  0.83326277  0.92167542    -0.20900
C834        C  0.01926933  0.86157705  0.90538556    -0.07500
C835        C  0.04412696  0.85054755  0.87513001     0.13400
C836        C  0.04182532  0.81189796  0.86119019    -0.21000
C837        C  0.01432969  0.78442694  0.87595865    -0.07500
C838        C  0.99030698  0.79574055  0.90669122     0.13400
C839        C  0.95726183  0.77052220  0.92086731    -0.24300
H840        H  0.97513868  0.84127272  0.94529570     0.14700
H841        H  0.06018842  0.80364667  0.83722680     0.14700
C842        C  0.07116293  0.87974881  0.85616793    -0.24300
H843        H  0.96835618  0.74367493  0.93437848     0.04900
H844        H  0.93800304  0.76391794  0.89592109     0.08100
H845        H  0.93939570  0.78530298  0.94298839     0.08100
H846        H  0.09263821  0.89089373  0.87761596     0.08100
H847        H  0.05422042  0.90443461  0.84452081     0.08100
H848        H  0.08744389  0.86665097  0.83187460     0.04900
C849        C  0.06458797  0.41155364  0.86457302    -0.20900
C850        C  0.05727675  0.37363308  0.87863483    -0.07500
C851        C  0.07822583  0.36027443  0.91136396     0.13400
C852        C  0.10524805  0.38504737  0.92907408    -0.21000
C853        C  0.11181140  0.42266672  0.91544131    -0.07500
C854        C  0.09142476  0.43655125  0.88305790     0.13400
C855        C  0.09828048  0.47731567  0.86803142    -0.24300
H856        H  0.04920935  0.42169459  0.83923126     0.14700
H857        H  0.12178041  0.37492901  0.95379310     0.14700
C858        C  0.07475891  0.31945221  0.92687141    -0.24300
H859        H  0.08007565  0.48336992  0.84222411     0.04900
H860        H  0.12926365  0.48152413  0.85982293     0.08100
H861        H  0.09096857  0.49871498  0.89079259     0.08100
H862        H  0.08055475  0.29887039  0.90329720     0.08100
H863        H  0.04582863  0.31403864  0.93986984     0.08100
H864        H  0.09638347  0.31369862  0.95000656     0.04900
C865        C  0.10129574  0.37710378  0.07231019    -0.20900
C866        C  0.10907015  0.41435442  0.08740863    -0.07500
C867        C  0.08711293  0.42716007  0.11935216     0.13400
C868        C  0.05874412  0.40217784  0.13565138    -0.21000
C869        C  0.05135847  0.36444932  0.12119502    -0.07500
C870        C  0.07276739  0.35203588  0.08857812     0.13400
C871        C  0.06764426  0.31234079  0.07074394    -0.24300
H872        H  0.11793023  0.36729278  0.04765831     0.14700
H873        H  0.04221721  0.41235607  0.16021755     0.14700
C874        C  0.09310429  0.46659161  0.13757561    -0.24300
H875        H  0.09581706  0.29698267  0.07139080     0.04900
H876        H  0.05816194  0.31550388  0.04020886     0.08100
H877        H  0.04607871  0.29372434  0.08589956     0.08100
H878        H  0.06552860  0.48291435  0.13616463     0.08100
H879        H  0.11622837  0.48422737  0.12324300     0.08100
H880        H  0.10126085  0.46297307  0.16843661     0.04900
C881        C  0.12908677  0.65302068  0.09587714    -0.20900
C882        C  0.11806461  0.61471185  0.08590482    -0.07500
C883        C  0.07863064  0.60277496  0.09129619     0.13400
C884        C  0.05208205  0.62918925  0.10647185    -0.21000
C885        C  0.06281611  0.66774008  0.11448861    -0.07500
C886        C  0.10190381  0.67983389  0.10952886     0.13400
C887        C  0.11493610  0.72093174  0.11851855    -0.24300
H888        H  0.15910102  0.66211772  0.09285859     0.14700
H889        H  0.02298939  0.61919941  0.11351067     0.14700
C890        C  0.06415988  0.56197690  0.08285379    -0.24300
H891        H  0.14615475  0.72588071  0.11165131     0.04900
H892        H  0.11092836  0.72707517  0.14969967     0.08100
H893        H  0.09770127  0.74176208  0.10121722     0.08100
H894        H  0.08243264  0.54080045  0.09841294     0.08100
H895        H  0.06500110  0.55628741  0.05131815     0.08100
H896        H  0.03355478  0.55720217  0.09229787     0.04900
C897        C  0.13063220  0.63736093  0.88751853    -0.20900
C898        C  0.11671929  0.61161583  0.91646268    -0.07500
C899        C  0.07595160  0.61056441  0.92387739     0.13400
C900        C  0.05100590  0.63385330  0.90155232    -0.21000
C901        C  0.06512581  0.65866720  0.87220879    -0.07500
C902        C  0.10567717  0.66102010  0.86582094     0.13400
C903        C  0.12324847  0.68963381  0.83743842    -0.24300
H904        H  0.16154707  0.63928761  0.88159943     0.14700
H905        H  0.01997716  0.63259419  0.90706260     0.14700
C906        C  0.05802923  0.58586741  0.95552392    -0.24300
H907        H  0.15551474  0.69068479  0.83939615     0.04900
H908        H  0.11251911  0.71935396  0.84335004     0.08100
H909        H  0.11569871  0.68097832  0.80755148     0.08100
H910        H  0.07117576  0.59383227  0.98382289     0.08100
H911        H  0.06249298  0.55455169  0.94943195     0.08100
H912        H  0.02614770  0.59017362  0.95791536     0.04900
C913        C  0.38675295  0.38544223  0.84716778    -0.20900
C914        C  0.42579373  0.38739516  0.85853209    -0.07500
C915        C  0.43631370  0.40937619  0.89143117     0.13400
C916        C  0.40732209  0.42754311  0.91304821    -0.21000
C917        C  0.36788533  0.42567785  0.90205673    -0.07500
C918        C  0.35781412  0.40528784  0.86746372     0.13400
C919        C  0.31742477  0.40530353  0.85019554    -0.24300
H920        H  0.37906331  0.36894433  0.82149855     0.14700
H921        H  0.41580817  0.44344587  0.93879700     0.14700
C922        C  0.47789797  0.41327897  0.90450869    -0.24300
H923        H  0.31630373  0.39032904  0.82178239     0.04900
H924        H  0.30814507  0.43574652  0.84535526     0.08100
H925        H  0.29640788  0.38984769  0.86927564     0.08100
H926        H  0.48071004  0.43002342  0.93181587     0.08100
H927        H  0.49501661  0.42911981  0.88223909     0.08100
H928        H  0.48997993  0.38403223  0.90959204     0.04900
C929        C  0.41544422  0.59033579  0.84655722    -0.20900
C930        C  0.42600453  0.62972846  0.85172629    -0.07500
C931        C  0.41068606  0.64999511  0.88410982     0.13400
C932        C  0.38349084  0.63123608  0.90824362    -0.21000
C933        C  0.37267631  0.59236623  0.90250322    -0.07500
C934        C  0.38923975  0.57132721  0.87183487     0.13400
C935        C  0.37901284  0.52896292  0.86574327    -0.24300
H936        H  0.42768374  0.57434288  0.82264264     0.14700
H937        H  0.37091463  0.64691213  0.93223712     0.14700
C938        C  0.42403624  0.69048514  0.89552061    -0.24300
H939        H  0.39451243  0.51671444  0.84050020     0.04900
H940        H  0.34721637  0.52541011  0.86077697     0.08100
H941        H  0.38735503  0.51203293  0.89173254     0.08100
H942        H  0.40823066  0.71257559  0.87849933     0.08100
H943        H  0.45592093  0.69426111  0.89169082     0.08100
H944        H  0.41794013  0.69620378  0.92648828     0.04900
C945        C  0.36864091  0.60955560  0.13868394    -0.20900
C946        C  0.37962154  0.58923494  0.10508980    -0.07500
C947        C  0.42037103  0.58568711  0.09789980     0.13400
C948        C  0.44775299  0.60375297  0.12298040    -0.21000
C949        C  0.43632951  0.62573537  0.15507727    -0.07500
C950        C  0.39609188  0.62733591  0.16365353     0.13400
C951        C  0.38087052  0.64677329  0.19945255    -0.24300
H952        H  0.33808241  0.61170137  0.14593143     0.14700
H953        H  0.47851843  0.60193316  0.11654175     0.14700
C954        C  0.43595121  0.56382966  0.06362219    -0.24300
H955        H  0.36276607  0.62559156  0.21615378     0.04900
H956        H  0.36258108  0.67176816  0.19105205     0.08100
H957        H  0.40432338  0.65729962  0.21899069     0.08100
H958        H  0.42531804  0.57709086  0.03636559     0.08100
H959        H  0.42676927  0.53272950  0.06529923     0.08100
H960        H  0.46827470  0.56471222  0.06262673     0.04900
C961        C  0.37330592  0.43481716  0.13653227    -0.20900
C962        C  0.36814019  0.42182981  0.09857879    -0.07500
C963        C  0.39027308  0.39088267  0.08442488     0.13400
C964        C  0.41798610  0.37398549  0.10869201    -0.21000
C965        C  0.42507819  0.38855857  0.14605378    -0.07500
C966        C  0.40163219  0.41863781  0.16052754     0.13400
C967        C  0.40457021  0.43237692  0.20166180    -0.24300
H968        H  0.35525956  0.45802763  0.14726599     0.14700
H969        H  0.43504734  0.35004729  0.09804297     0.14700
C970        C  0.38441520  0.37566057  0.04397192    -0.24300
H971        H  0.38237223  0.45448524  0.20841072     0.04900
H972        H  0.43343389  0.44596702  0.20725281     0.08100
H973        H  0.39947996  0.40725465  0.22123364     0.08100
H974        H  0.39077425  0.39913566  0.02265999     0.08100
H975        H  0.35383042  0.36536546  0.04026701     0.08100
H976        H  0.40387065  0.35097011  0.03769421     0.04900
C977        C  0.57809989  0.42190243  0.07883025    -0.20900
C978        C  0.61496470  0.43143982  0.09390308    -0.07500
C979        C  0.62232402  0.42429287  0.13376124     0.13400
C980        C  0.59319200  0.40673089  0.15672209    -0.21000
C981        C  0.55653363  0.39718445  0.14150641    -0.07500
C982        C  0.54890448  0.40492754  0.10210488     0.13400
C983        C  0.51021478  0.39477111  0.08430344    -0.24300
H984        H  0.57224519  0.42725418  0.04849641     0.14700
H985        H  0.59919171  0.40006785  0.18675738     0.14700
C986        C  0.66026195  0.43594106  0.15287788    -0.24300
H987        H  0.50957976  0.40119347  0.05282662     0.04900
H988        H  0.48750149  0.41236835  0.09827330     0.08100
H989        H  0.50381465  0.36324220  0.08831128     0.08100
H990        H  0.66656644  0.46733140  0.14767537     0.08100
H991        H  0.68434596  0.41819968  0.14149398     0.08100
H992        H  0.65930619  0.43128663  0.18465628     0.04900
C993        C  0.59297935  0.62393006  0.07493954    -0.20900
C994        C  0.62092688  0.60058639  0.09276316    -0.07500
C995        C  0.62055071  0.59606720  0.13343886     0.13400
C996        C  0.59203396  0.61485480  0.15518365    -0.21000
C997        C  0.56480494  0.63897338  0.13743238    -0.07500
C998        C  0.56537064  0.64388964  0.09683902     0.13400
C999        C  0.53664157  0.66950994  0.07637857    -0.24300
H1000       H  0.59336545  0.62725051  0.04376715     0.14700
H1001       H  0.59128876  0.61119683  0.18632742     0.14700
C1002       C  0.64947591  0.57075303  0.15396013    -0.24300
H1003       H  0.53989893  0.66800933  0.04447975     0.04900
H1004       H  0.54136377  0.70030447  0.08492184     0.08100
H1005       H  0.50644806  0.66028641  0.08372765     0.08100
H1006       H  0.67930194  0.58291492  0.15001440     0.08100
H1007       H  0.64789353  0.54073772  0.14216837     0.08100
H1008       H  0.64373843  0.56910441  0.18552644     0.04900
C1009       C  0.58065423  0.60280959  0.91345533    -0.20900
C1010       C  0.61923809  0.60599230  0.89986941    -0.07500
C1011       C  0.62638713  0.62587828  0.86438877     0.13400
C1012       C  0.59493869  0.64149190  0.84405774    -0.21000
C1013       C  0.55661312  0.63664643  0.85712485    -0.07500
C1014       C  0.54933805  0.61730605  0.89235144     0.13400
C1015       C  0.50883274  0.61257409  0.90844118    -0.24300
H1016       H  0.57457947  0.58832214  0.94069135     0.14700
H1017       H  0.60018034  0.65716441  0.81730335     0.14700
C1018       C  0.66639938  0.63024313  0.84677818    -0.24300
H1019       H  0.50880889  0.59828479  0.93728150     0.04900
H1020       H  0.49083335  0.59414206  0.88896326     0.08100
H1021       H  0.49551693  0.64152457  0.91172288     0.08100
H1022       H  0.67883381  0.60110144  0.84151734     0.08100
H1023       H  0.68571023  0.64750873  0.86621946     0.08100
H1024       H  0.66565267  0.64567309  0.81852709     0.04900
C1025       C  0.59926579  0.39236971  0.90779395    -0.20900
C1026       C  0.61001996  0.43037400  0.89744513    -0.07500
C1027       C  0.59203547  0.44764083  0.86509572     0.13400
C1028       C  0.56579822  0.42544529  0.84218103    -0.21000
C1029       C  0.55543389  0.38667947  0.85174945    -0.07500
C1030       C  0.57172941  0.37058824  0.88629599     0.13400
C1031       C  0.55953075  0.33141216  0.90265498    -0.24300
H1032       H  0.61250417  0.37962992  0.93324015     0.14700
H1033       H  0.55294139  0.43875131  0.81690130     0.14700
C1034       C  0.60012708  0.48970590  0.85522475    -0.24300
H1035       H  0.56855789  0.32833942  0.93335140     0.04900
H1036       H  0.57382802  0.30769024  0.88670424     0.08100
H1037       H  0.52742699  0.32755746  0.90193154     0.08100
H1038       H  0.63170324  0.49448215  0.85058843     0.08100
H1039       H  0.59067739  0.50845924  0.87945634     0.08100
H1040       H  0.58443123  0.49879291  0.82869349     0.04900
C1041       C  0.85739097  0.38209966  0.10185569    -0.20900
C1042       C  0.87098872  0.41250882  0.07763839    -0.07500
C1043       C  0.91198530  0.41847228  0.07393045     0.13400
C1044       C  0.93733150  0.39510574  0.09543237    -0.21000
C1045       C  0.92325635  0.36613853  0.12051907    -0.07500
C1046       C  0.88286821  0.35896915  0.12322231     0.13400
C1047       C  0.86646127  0.32609920  0.14754853    -0.24300
H1048       H  0.82643518  0.37628799  0.10449996     0.14700
H1049       H  0.96852902  0.39984213  0.09314053     0.14700
C1050       C  0.92992192  0.44902565  0.04770497    -0.24300
H1051       H  0.83441566  0.32299790  0.14416828     0.04900
H1052       H  0.87244921  0.33142823  0.17857683     0.08100
H1053       H  0.87967979  0.29821967  0.13876160     0.08100
H1054       H  0.92107795  0.47848309  0.05702062     0.08100
H1055       H  0.92085284  0.44363136  0.01733606     0.08100
H1056       H  0.96223558  0.44861403  0.04841117     0.04900
C1057       C  0.89486048  0.42774403  0.88067544    -0.20900
C1058       C  0.86993572  0.41207998  0.90883909    -0.07500
C1059       C  0.87477176  0.37321181  0.92128800     0.13400
C1060       C  0.90375660  0.35044329  0.90417180    -0.21000
C1061       C  0.92786292  0.36571728  0.87495180    -0.07500
C1062       C  0.92371874  0.40510250  0.86349282     0.13400
C1063       C  0.95047245  0.42396247  0.83420570    -0.24300
H1064       H  0.89164665  0.45790557  0.87207413     0.14700
H1065       H  0.90758114  0.32060541  0.91352120     0.14700
C1066       C  0.85018693  0.35622575  0.95340331    -0.24300
H1067       H  0.94441734  0.45541540  0.83044817     0.04900
H1068       H  0.94686383  0.40990614  0.80560517     0.08100
H1069       H  0.98100306  0.42137898  0.84399467     0.08100
H1070       H  0.81899509  0.35640067  0.94502618     0.08100
H1071       H  0.85436190  0.37374990  0.98007974     0.08100
H1072       H  0.85814711  0.32570972  0.96001690     0.04900
C1073       C  0.90742788  0.59640047  0.88776016    -0.20900
C1074       C  0.88014428  0.61292872  0.91267247    -0.07500
C1075       C  0.88362076  0.65309123  0.92134473     0.13400
C1076       C  0.91268388  0.67588487  0.90310963    -0.21000
C1077       C  0.93920747  0.65988588  0.87697238    -0.07500
C1078       C  0.93689140  0.61913609  0.86998403     0.13400
C1079       C  0.96492197  0.59831336  0.84406365    -0.24300
H1080       H  0.90539585  0.56548567  0.88160317     0.14700
H1081       H  0.91357213  0.70656338  0.90883965     0.14700
C1082       C  0.85771627  0.67292099  0.95020111    -0.24300
H1083       H  0.97898156  0.57459373  0.86056968     0.04900
H1084       H  0.98845089  0.61741181  0.83270704     0.08100
H1085       H  0.94885218  0.58544016  0.81919998     0.08100
H1086       H  0.87595414  0.68616567  0.97337935     0.08100
H1087       H  0.83656754  0.65284858  0.96435356     0.08100
H1088       H  0.84127731  0.69629113  0.93554440     0.04900
C1089       C  0.86792497  0.62530013  0.11516945    -0.20900
C1090       C  0.87849907  0.60384900  0.08236908    -0.07500
C1091       C  0.91743285  0.60677831  0.06907096     0.13400
C1092       C  0.94395773  0.63111178  0.08864088    -0.21000
C1093       C  0.93347037  0.65284811  0.12133060    -0.07500
C1094       C  0.89433797  0.65005825  0.13443915     0.13400
C1095       C  0.87853553  0.67471152  0.16664607    -0.24300
H1096       H  0.83824231  0.62330734  0.12563455     0.14700
H1097       H  0.97306831  0.63357741  0.07728013     0.14700
C1098       C  0.93152339  0.58575076  0.03357449    -0.24300
H1099       H  0.84624333  0.67327012  0.16783407     0.04900
H1100       H  0.88677688  0.70565598  0.16191546     0.08100
H1101       H  0.88879837  0.66411644  0.19505674     0.08100
H1102       H  0.91395488  0.59422558  0.00802936     0.08100
H1103       H  0.92950042  0.55380165  0.03821199     0.08100
H1104       H  0.96244810  0.59290259  0.02689066     0.04900
C1105       C  0.03271916  0.01046040  0.80281588    -0.20900
C1106       C  0.04496281  0.04137346  0.82651782    -0.07500
C1107       C  0.07598166  0.06577985  0.81476867     0.13400
C1108       C  0.09627268  0.05678059  0.78090850    -0.21000
C1109       C  0.08659480  0.02343229  0.75908272    -0.07500
C1110       C  0.05335448  0.00097936  0.76926120     0.13400
C1111       C  0.04167527  0.96500382  0.74723691    -0.24300
H1112       H  0.00913912  0.99148385  0.81257715     0.14700
H1113       H  0.12141536  0.07441239  0.77279712     0.14700
C1114       C  0.08899192  0.09978894  0.83929015    -0.24300
H1115       H  0.03406236  0.97275065  0.71708227     0.04900
H1116       H  0.01583704  0.95015304  0.76019099     0.08100
H1117       H  0.06606910  0.94426326  0.74773438     0.08100
H1118       H  0.09864252  0.08938916  0.86811835     0.08100
H1119       H  0.06441059  0.12000906  0.84309618     0.08100
H1120       H  0.11356562  0.11622151  0.82578988     0.04900
C1121       C  0.05839903  0.01507793  0.18345487    -0.20900
C1122       C  0.07559503  0.04000843  0.15556642    -0.07500
C1123       C  0.10581686  0.06565814  0.16734775     0.13400
C1124       C  0.12038894  0.06281813  0.20534328    -0.21000
C1125       C  0.10568097  0.03495749  0.23195460    -0.07500
C1126       C  0.07288025  0.01221792  0.22131154     0.13400
C1127       C  0.05429411  0.98317583  0.24859816    -0.24300
H1128       H  0.03418433  0.99631722  0.17507335     0.14700
H1129       H  0.14495121  0.08111972  0.21377607     0.14700
C1130       C  0.12429257  0.09436792  0.13968755    -0.24300
H1131       H  0.03073705  0.96595335  0.23430511     0.04900
H1132       H  0.04088748  0.99858628  0.27318358     0.08100
H1133       H  0.07633288  0.96250115  0.25931471     0.08100
H1134       H  0.10226754  0.11541841  0.12965505     0.08100
H1135       H  0.13636862  0.07876612  0.11450054     0.08100
H1136       H  0.14843947  0.11117509  0.15348031     0.04900
C1137       C  0.19267316  0.47895859  0.24170714    -0.20900
C1138       C  0.20602453  0.50928155  0.26595586    -0.07500
C1139       C  0.23172288  0.53804353  0.24944438     0.13400
C1140       C  0.24139105  0.53608148  0.20994623    -0.21000
C1141       C  0.22741489  0.50598234  0.18612672    -0.07500
C1142       C  0.20321463  0.47660514  0.20265972     0.13400
C1143       C  0.18746835  0.44263847  0.17946965    -0.24300
H1144       H  0.17420709  0.45599348  0.25264554     0.14700
H1145       H  0.26027335  0.55835592  0.19745990     0.14700
C1146       C  0.24967047  0.57123878  0.27250646    -0.24300
H1147       H  0.16675295  0.42412800  0.19629654     0.04900
H1148       H  0.21172089  0.42383392  0.17033359     0.08100
H1149       H  0.17179550  0.45337755  0.15369799     0.08100
H1150       H  0.26908567  0.58992512  0.25440465     0.08100
H1151       H  0.26793475  0.56024056  0.29637342     0.08100
H1152       H  0.22704760  0.59050930  0.28409317     0.04900
C1153       C  0.26156950  0.52642403  0.43065239    -0.20900
C1154       C  0.25245421  0.49830661  0.40279427    -0.07500
C1155       C  0.27489538  0.46396204  0.40062778     0.13400
C1156       C  0.30743825  0.46018568  0.42460376    -0.21000
C1157       C  0.31867715  0.49007784  0.44971518    -0.07500
C1158       C  0.29534318  0.52344701  0.45313694     0.13400
C1159       C  0.30780288  0.55746127  0.47788884    -0.24300
H1160       H  0.24430529  0.55251007  0.43221402     0.14700
H1161       H  0.32593846  0.43510485  0.42138831     0.14700
C1162       C  0.26611158  0.43094084  0.37305325    -0.24300
H1163       H  0.28594166  0.58091919  0.47768793     0.04900
H1164       H  0.33566958  0.57002596  0.46703167     0.08100
H1165       H  0.31177319  0.54783469  0.50809158     0.08100
H1166       H  0.29009492  0.42862345  0.35174650     0.08100
H1167       H  0.23832060  0.43425091  0.35726602     0.08100
H1168       H  0.26378943  0.40317962  0.38949422     0.04900
C1169       C  0.80580225  0.48049394  0.22511535    -0.20900
C1170       C  0.79084485  0.50827377  0.25074514    -0.07500
C1171       C  0.76642892  0.53783837  0.23515508     0.13400
C1172       C  0.75609142  0.53670138  0.19595654    -0.21000
C1173       C  0.76971081  0.50781493  0.17129371    -0.07500
C1174       C  0.79579070  0.47994868  0.18588749     0.13400
C1175       C  0.81442335  0.45012607  0.16021654    -0.24300
H1176       H  0.82489314  0.45816432  0.23513931     0.14700
H1177       H  0.73709176  0.55871578  0.18435123     0.14700
C1178       C  0.75078074  0.57118265  0.25881881    -0.24300
H1179       H  0.83624993  0.43258763  0.17595011     0.04900
H1180       H  0.82969721  0.46509220  0.13600024     0.08100
H1181       H  0.79203898  0.42950615  0.14885831     0.08100
H1182       H  0.77489782  0.59041635  0.26879712     0.08100
H1183       H  0.73354937  0.56069642  0.28385136     0.08100
H1184       H  0.73117250  0.58985001  0.24153369     0.04900
C1185       C  0.71658153  0.50025936  0.40942020    -0.20900
C1186       C  0.72231732  0.48166043  0.37438765    -0.07500
C1187       C  0.69144029  0.45760861  0.35932077     0.13400
C1188       C  0.65411635  0.45872924  0.37628295    -0.21000
C1189       C  0.64758893  0.48100526  0.40936623    -0.07500
C1190       C  0.68022435  0.49955305  0.42735589     0.13400
C1191       C  0.67743640  0.51871597  0.46592850    -0.24300
H1192       H  0.74007436  0.51747077  0.42197280     0.14700
H1193       H  0.63007740  0.44259284  0.36331850     0.14700
C1194       C  0.69679923  0.42944609  0.32646891    -0.24300
H1195       H  0.70651004  0.52565566  0.47848481     0.04900
H1196       H  0.66229545  0.49825805  0.48586658     0.08100
H1197       H  0.66195588  0.54654543  0.46289690     0.08100
H1198       H  0.72765993  0.42649319  0.31795827     0.08100
H1199       H  0.67946918  0.43879756  0.30107120     0.08100
H1200       H  0.68646726  0.40000764  0.33554224     0.04900
C1201       C  0.89417042  0.02127508  0.77229498    -0.20900
C1202       C  0.87314745  0.98870608  0.76039793    -0.07500
C1203       C  0.86733717  0.95740955  0.78679119     0.13400
C1204       C  0.88140096  0.96058698  0.82511863    -0.21000
C1205       C  0.90072630  0.99459186  0.83809574    -0.07500
C1206       C  0.90736249  0.02532707  0.81037441     0.13400
C1207       C  0.92791243  0.06342873  0.81936518    -0.24300
H1208       H  0.89787242  0.04522435  0.75204774     0.14700
H1209       H  0.87651511  0.93660813  0.84505293     0.14700
C1210       C  0.84646612  0.92033380  0.77519700    -0.24300
H1211       H  0.93038082  0.08289794  0.79375991     0.04900
H1212       H  0.95791376  0.05759176  0.82866529     0.08100
H1213       H  0.91168846  0.07985481  0.84154578     0.08100
H1214       H  0.83877341  0.91991839  0.74405725     0.08100
H1215       H  0.81940837  0.91668978  0.79242992     0.08100
H1216       H  0.86556950  0.89516493  0.78076141     0.04900
C1217       C  0.94921559  0.01586952  0.19125222    -0.20900
C1218       C  0.94013032  0.98402422  0.16745200    -0.07500
C1219       C  0.91234560  0.95609514  0.17968741     0.13400
C1220       C  0.89194618  0.96238880  0.21417701    -0.21000
C1221       C  0.89803295  0.99652538  0.23596700    -0.07500
C1222       C  0.92840188  0.02272422  0.22531274     0.13400
C1223       C  0.93786537  0.05969998  0.24695830    -0.24300
H1224       H  0.97040222  0.03747235  0.18141925     0.14700
H1225       H  0.86926140  0.94186863  0.22285546     0.14700
C1226       C  0.90248909  0.92116055  0.15508838    -0.24300
H1227       H  0.96850086  0.05900755  0.25717483     0.04900
H1228       H  0.91903797  0.06429826  0.27225838     0.08100
H1229       H  0.93443631  0.08509688  0.22738762     0.08100
H1230       H  0.92902772  0.90377516  0.15044868     0.08100
H1231       H  0.89102410  0.93074201  0.12664471     0.08100
H1232       H  0.88011549  0.90207206  0.16896857     0.04900
C1233       C  0.19063092  0.48300943  0.76612078    -0.20900
C1234       C  0.19101923  0.51849583  0.74546854    -0.07500
C1235       C  0.20624129  0.55205387  0.76497530     0.13400
C1236       C  0.21910109  0.54908180  0.80350233    -0.21000
C1237       C  0.21840102  0.51364095  0.82384453    -0.07500
C1238       C  0.20391082  0.47995047  0.80441314     0.13400
C1239       C  0.20259739  0.43999711  0.82289249    -0.24300
H1240       H  0.18206822  0.45633123  0.75201752     0.14700
H1241       H  0.23003292  0.57505421  0.81785245     0.14700
C1242       C  0.20978793  0.59157588  0.74599105    -0.24300
H1243       H  0.19016534  0.41744570  0.80329066     0.04900
H1244       H  0.18402013  0.44014850  0.84905844     0.08100
H1245       H  0.23249192  0.43083776  0.83040894     0.08100
H1246       H  0.18053339  0.60406049  0.74249799     0.08100
H1247       H  0.22493775  0.58984888  0.71780456     0.08100
H1248       H  0.22676618  0.61253476  0.76398694     0.04900
C1249       C  0.30917918  0.50969414  0.57501912    -0.20900
C1250       C  0.33643400  0.53667411  0.59042657    -0.07500
C1251       C  0.32381214  0.56244904  0.61935798     0.13400
C1252       C  0.28507945  0.55918423  0.63288880    -0.21000
C1253       C  0.25911058  0.52970401  0.61955970    -0.07500
C1254       C  0.27153540  0.50511437  0.58970023     0.13400
C1255       C  0.24744028  0.47099402  0.57599865    -0.24300
H1256       H  0.31809048  0.49019515  0.55221415     0.14700
H1257       H  0.27566023  0.57832707  0.65578682     0.14700
C1258       C  0.35131925  0.59130984  0.63798354    -0.24300
H1259       H  0.26258891  0.45384101  0.55355669     0.04900
H1260       H  0.21978535  0.48073094  0.56307552     0.08100
H1261       H  0.24221714  0.45148851  0.60103330     0.08100
H1262       H  0.36300662  0.61188712  0.61608540     0.08100
H1263       H  0.37575704  0.57574115  0.65169581     0.08100
H1264       H  0.33665684  0.60853420  0.66068764     0.04900
C1265       C  0.74550764  0.50403936  0.74647037    -0.20900
C1266       C  0.78415627  0.51015186  0.73359150    -0.07500
C1267       C  0.81383055  0.51469225  0.76222459     0.13400
C1268       C  0.80321750  0.51882132  0.80115381    -0.21000
C1269       C  0.76433290  0.51573471  0.81278451    -0.07500
C1270       C  0.73529611  0.50731294  0.78539642     0.13400
C1271       C  0.69340345  0.50188942  0.79722774    -0.24300
H1272       H  0.72277180  0.49538645  0.72666105     0.14700
H1273       H  0.82569298  0.52292582  0.82290611     0.14700
C1274       C  0.85695526  0.51401948  0.75384064    -0.24300
H1275       H  0.67407583  0.49619674  0.77203437     0.04900
H1276       H  0.68329491  0.52865462  0.81178687     0.08100
H1277       H  0.69062298  0.47675596  0.81731561     0.08100
H1278       H  0.86407840  0.50608031  0.72378659     0.08100
H1279       H  0.87085496  0.49188242  0.77256103     0.08100
H1280       H  0.87024599  0.54295101  0.76038911     0.04900
C1281       C  0.72612365  0.55552363  0.57963619    -0.20900
C1282       C  0.73478848  0.51892960  0.59577975    -0.07500
C1283       C  0.70888478  0.48726815  0.58998970     0.13400
C1284       C  0.67488027  0.49305659  0.56920322    -0.21000
C1285       C  0.66375843  0.53024229  0.55659328    -0.07500
C1286       C  0.69052150  0.56167324  0.56012752     0.13400
C1287       C  0.68103754  0.60155982  0.54516519    -0.24300
H1288       H  0.74597956  0.57982955  0.58449257     0.14700
H1289       H  0.65533292  0.46825007  0.56508663     0.14700
C1290       C  0.71447600  0.44736694  0.60742159    -0.24300
H1291       H  0.70498198  0.62286193  0.55107108     0.04900
H1292       H  0.65418436  0.61211496  0.55922502     0.08100
H1293       H  0.67652756  0.60038359  0.51341566     0.08100
H1294       H  0.74162145  0.44487369  0.62442644     0.08100
H1295       H  0.71508407  0.42530839  0.58402265     0.08100
H1296       H  0.68976420  0.44027536  0.62700594     0.04900
C1297       C  0.01637173  0.27796474  0.29951951    -0.20900
C1298       C  0.98723320  0.29178429  0.32368087    -0.07500
C1299       C  0.95923652  0.31725050  0.30817570     0.13400
C1300       C  0.96017016  0.32657027  0.26860671    -0.21000
C1301       C  0.98859305  0.31157681  0.24356800    -0.07500
C1302       C  0.01774564  0.28730562  0.26015367     0.13400
C1303       C  0.05059853  0.26900552  0.23806326    -0.24300
H1304       H  0.03824431  0.25888654  0.31141397     0.14700
H1305       H  0.93786377  0.34534097  0.25787090     0.14700
C1306       C  0.92905288  0.33603256  0.33325193    -0.24300
H1307       H  0.07883789  0.27791425  0.25124856     0.04900
H1308       H  0.05215711  0.27697791  0.20740453     0.08100
H1309       H  0.04760610  0.23679651  0.23979427     0.08100
H1310       H  0.94377056  0.35231912  0.35692682     0.08100
H1311       H  0.90890357  0.31362987  0.34540982     0.08100
H1312       H  0.91109341  0.35699228  0.31681816     0.04900
C1313       C  0.03102000  0.28203003  0.70312518    -0.20900
C1314       C  0.99541452  0.27559140  0.68399986    -0.07500
C1315       C  0.96055431  0.27828765  0.70591618     0.13400
C1316       C  0.96253083  0.29084010  0.74440448    -0.21000
C1317       C  0.99798070  0.30057075  0.76277095    -0.07500
C1318       C  0.03292058  0.29218283  0.74238482     0.13400
C1319       C  0.07290501  0.29127871  0.76039728    -0.24300
H1320       H  0.05807045  0.27797543  0.68766021     0.14700
H1321       H  0.93569135  0.29163777  0.76058074     0.14700
C1322       C  0.92080130  0.26738082  0.69008449    -0.24300
H1323       H  0.08683758  0.26322106  0.75333629     0.04900
H1324       H  0.07284228  0.29284270  0.79208975     0.08100
H1325       H  0.09119851  0.31543554  0.74856621     0.08100
H1326       H  0.92074892  0.23683220  0.67963728     0.08100
H1327       H  0.91257542  0.28742327  0.66637488     0.08100
H1328       H  0.89765916  0.26929424  0.71235285     0.04900
C1329       C  0.86239596  0.37549027  0.39452057    -0.20900
C1330       C  0.89458987  0.38931710  0.41624820    -0.07500
C1331       C  0.90306725  0.43006380  0.41578204     0.13400
C1332       C  0.87972959  0.45490672  0.39348982    -0.21000
C1333       C  0.84843988  0.44047427  0.37150591    -0.07500
C1334       C  0.83933840  0.40042804  0.37241689     0.13400
C1335       C  0.80437512  0.38408815  0.35127443    -0.24300
H1336       H  0.85479865  0.34476639  0.39478741     0.14700
H1337       H  0.88594500  0.48595108  0.39311588     0.14700
C1338       C  0.93632013  0.44812584  0.43831345    -0.24300
H1339       H  0.80086060  0.35220283  0.35582782     0.04900
H1340       H  0.80739119  0.38938076  0.31976696     0.08100
H1341       H  0.77767146  0.39825672  0.36196303     0.08100
H1342       H  0.96430153  0.43561621  0.42890829     0.08100
H1343       H  0.93193146  0.44302136  0.46971733     0.08100
H1344       H  0.93847694  0.48013049  0.43382259     0.04900
C1345       C  0.87600967  0.42716838  0.64234327    -0.20900
C1346       C  0.84393762  0.44037067  0.62070970    -0.07500
C1347       C  0.83667145  0.42378795  0.58373575     0.13400
C1348       C  0.86175155  0.39545033  0.56961249    -0.21000
C1349       C  0.89353491  0.38290191  0.59123367    -0.07500
C1350       C  0.90091076  0.39870571  0.62797058     0.13400
C1351       C  0.93551463  0.38622639  0.65145195    -0.24300
H1352       H  0.88240154  0.44003788  0.67025440     0.14700
H1353       H  0.85643452  0.38291597  0.54127808     0.14700
C1354       C  0.80269490  0.43371480  0.55828469    -0.24300
H1355       H  0.93675624  0.40107184  0.67992344     0.04900
H1356       H  0.96277205  0.39334656  0.63553544     0.08100
H1357       H  0.93387547  0.35438089  0.65670314     0.08100
H1358       H  0.78320652  0.45501546  0.57112088     0.08100
H1359       H  0.78508840  0.40694835  0.55246222     0.08100
H1360       H  0.81347686  0.44572110  0.53037641     0.04900
C1361       C  0.07369754  0.42141080  0.60898036    -0.20900
C1362       C  0.09171251  0.39219815  0.58752264    -0.07500
C1363       C  0.13270599  0.39321169  0.58358519     0.13400
C1364       C  0.15449255  0.42314994  0.60151325    -0.21000
C1365       C  0.13671467  0.45205815  0.62355213    -0.07500
C1366       C  0.09563455  0.45076917  0.62774307     0.13400
C1367       C  0.07463515  0.47960911  0.65265340    -0.24300
H1368       H  0.04230083  0.42048945  0.61209500     0.14700
H1369       H  0.18566812  0.42295668  0.59932498     0.14700
C1370       C  0.15366946  0.36326751  0.55992523    -0.24300
H1371       H  0.04257211  0.47509538  0.65137710     0.04900
H1372       H  0.08119287  0.50972659  0.64302993     0.08100
H1373       H  0.08363779  0.47636336  0.68325627     0.08100
H1374       H  0.14194305  0.36279943  0.53000719     0.08100
H1375       H  0.14994094  0.33399688  0.57317283     0.08100
H1376       H  0.18540568  0.36974662  0.55821352     0.04900
C1377       C  0.11611090  0.40799706  0.43709396    -0.20900
C1378       C  0.08151229  0.39729361  0.41876549    -0.07500
C1379       C  0.07117487  0.41428185  0.38332620     0.13400
C1380       C  0.09636818  0.44214003  0.36673128    -0.21000
C1381       C  0.13197433  0.45257739  0.38450232    -0.07500
C1382       C  0.14195624  0.43486157  0.42032445     0.13400
C1383       C  0.18083712  0.44043837  0.43981235    -0.24300
H1384       H  0.12360871  0.39390184  0.46414191     0.14700
H1385       H  0.08856866  0.45515806  0.33930283     0.14700
C1386       C  0.03425683  0.40217263  0.36273698    -0.24300
H1387       H  0.18443051  0.42043011  0.46480749     0.04900
H1388       H  0.18460783  0.47015647  0.45143827     0.08100
H1389       H  0.20394166  0.43355326  0.41907172     0.08100
H1390       H  0.00875085  0.40785582  0.38139442     0.08100
H1391       H  0.03494029  0.37058907  0.35602054     0.08100
H1392       H  0.03051264  0.41835739  0.33518379     0.04900
C1393       C  0.08892094  0.06260103  0.61347787    -0.20900
C1394       C  0.11272613  0.07382604  0.64434132    -0.07500
C1395       C  0.11922240  0.11381798  0.65184429     0.13400
C1396       C  0.10285917  0.14152484  0.62712131    -0.21000
C1397       C  0.07954385  0.13055493  0.59529577    -0.07500
C1398       C  0.07230186  0.09004994  0.58872177     0.13400
C1399       C  0.04701359  0.07455347  0.55629076    -0.24300
H1400       H  0.08332480  0.03185622  0.60862744     0.14700
H1401       H  0.10803134  0.17208788  0.63324261     0.14700
C1402       C  0.14152058  0.12765080  0.68697107    -0.24300
H1403       H  0.04563547  0.04221913  0.55589890     0.04900
H1404       H  0.05897873  0.08404420  0.52799669     0.08100
H1405       H  0.01672024  0.08470311  0.55977182     0.08100
H1406       H  0.17254127  0.11970355  0.68485530     0.08100
H1407       H  0.12858578  0.11449737  0.71342055     0.08100
H1408       H  0.14061330  0.15979699  0.69010106     0.04900
C1409       C  0.87513948  0.11140037  0.58698059    -0.20900
C1410       C  0.91168179  0.12573079  0.59827776    -0.07500
C1411       C  0.92801857  0.11242997  0.63334811     0.13400
C1412       C  0.90675078  0.08596870  0.65693972    -0.21000
C1413       C  0.86931867  0.07248174  0.64639948    -0.07500
C1414       C  0.85385763  0.08484522  0.61009423     0.13400
C1415       C  0.81599468  0.06888213  0.59386365    -0.24300
H1416       H  0.86292995  0.12147397  0.55988750     0.02700
H1417       H  0.91935164  0.07588583  0.68381517     0.14700
C1418       C  0.96795746  0.12619066  0.64571832    -0.24300
H1419       H  0.81235490  0.07674692  0.56291500     0.04900
H1420       H  0.79088127  0.08115317  0.60939253     0.08100
H1421       H  0.81514222  0.03662288  0.59571605     0.08100
H1422       H  0.96839036  0.15832991  0.64914808     0.08100
H1423       H  0.98964136  0.11809265  0.62349635     0.08100
H1424       H  0.97673829  0.11291980  0.67364382     0.04900
C1425       C  0.89159829  0.14428268  0.36557984    -0.20900
C1426       C  0.90949028  0.13194799  0.40014285    -0.07500
C1427       C  0.91083366  0.09126229  0.40789622     0.13400
C1428       C  0.89466879  0.06484190  0.38116592    -0.21000
C1429       C  0.87607296  0.07741694  0.34746685    -0.07500
C1430       C  0.87487083  0.11770682  0.33930404     0.13400
C1431       C  0.85733805  0.13294866  0.30235772    -0.24300
H1432       H  0.89082245  0.17505419  0.35872546     0.14700
H1433       H  0.89601459  0.03390504  0.38697510     0.14700
C1434       C  0.92833168  0.07482362  0.44436736    -0.24300
H1435       H  0.86208704  0.16486369  0.29921237     0.04900
H1436       H  0.82550700  0.12753740  0.30205535     0.08100
H1437       H  0.87077997  0.11862469  0.27706520     0.08100
H1438       H  0.91400166  0.08749856  0.47008089     0.08100
H1439       H  0.96012355  0.08102209  0.44512044     0.08100
H1440       H  0.92439906  0.04270273  0.44619384     0.04900
C1441       C  0.13157710  0.09056182  0.39318233    -0.20900
C1442       C  0.12114923  0.08696664  0.35402039    -0.07500
C1443       C  0.09346085  0.11257668  0.33825681     0.13400
C1444       C  0.07540537  0.13954475  0.36250381    -0.21000
C1445       C  0.08377736  0.14098262  0.40213940    -0.07500
C1446       C  0.11257380  0.11667153  0.41764028     0.13400
C1447       C  0.12381296  0.11889902  0.45969519    -0.24300
H1448       H  0.15399734  0.07214073  0.40493233     0.14700
H1449       H  0.05407265  0.15919489  0.35062752     0.14700
C1450       C  0.08397617  0.11284519  0.29571971    -0.24300
H1451       H  0.14729325  0.09828216  0.46696506     0.04900
H1452       H  0.09828985  0.11156240  0.47801735     0.08100
H1453       H  0.13431557  0.14882007  0.46661014     0.08100
H1454       H  0.06857642  0.08555969  0.28744592     0.08100
H1455       H  0.11118324  0.11618816  0.27866055     0.08100
H1456       H  0.06468978  0.13729738  0.28796428     0.04900
C1457       C  0.96372406  0.75266212  0.28764117    -0.20900
C1458       C  0.99771960  0.74901906  0.30965537    -0.07500
C1459       C  0.03284909  0.73973451  0.29026621     0.13400
C1460       C  0.03225580  0.73346708  0.25024129    -0.21000
C1461       C  0.99755454  0.73386940  0.22848262    -0.07500
C1462       C  0.96309507  0.74588396  0.24771088     0.13400
C1463       C  0.92458988  0.75222725  0.22794950    -0.24300
H1464       H  0.93691501  0.76089863  0.30170208     0.14700
H1465       H  0.05975655  0.72849569  0.23646736     0.14700
C1466       C  0.07129100  0.73481577  0.31094372    -0.24300
H1467       H  0.90253441  0.73131027  0.23955974     0.04900
H1468       H  0.92554552  0.74889621  0.19643910     0.08100
H1469       H  0.91480567  0.78231517  0.23371541     0.08100
H1470       H  0.06849605  0.71168802  0.33330674     0.08100
H1471       H  0.08079722  0.76267222  0.32428659     0.08100
H1472       H  0.09490771  0.72603528  0.29104678     0.04900
C1473       C  0.02546156  0.74648700  0.69291702    -0.20900
C1474       C  0.99059439  0.74035622  0.67236658    -0.07500
C1475       C  0.95927202  0.72118785  0.69161441     0.13400
C1476       C  0.96373481  0.70916249  0.73027792    -0.21000
C1477       C  0.99857606  0.71543538  0.75125775    -0.07500
C1478       C  0.03021718  0.73411183  0.73138988     0.13400
C1479       C  0.06966499  0.74135740  0.74977933    -0.24300
H1480       H  0.04974046  0.76089567  0.67853639     0.14700
H1481       H  0.93872012  0.69594840  0.74390968     0.14700
C1482       C  0.92077039  0.71280235  0.67197823    -0.24300
H1483       H  0.08962147  0.75794148  0.73032811     0.04900
H1484       H  0.08383846  0.71332223  0.75575325     0.08100
H1485       H  0.06747551  0.75852410  0.77667112     0.08100
H1486       H  0.92527334  0.69439828  0.64609002     0.08100
H1487       H  0.90684418  0.74052401  0.66362790     0.08100
H1488       H  0.90004843  0.69686482  0.69116149     0.04900
C1489       C  0.07834608  0.61011507  0.38429928    -0.20900
C1490       C  0.09419107  0.63648740  0.41096855    -0.07500
C1491       C  0.13410304  0.63483841  0.42064869     0.13400
C1492       C  0.15732013  0.60646147  0.40333128    -0.21000
C1493       C  0.14163607  0.58053905  0.37599392    -0.07500
C1494       C  0.10162998  0.58234471  0.36637090     0.13400
C1495       C  0.08301090  0.55443716  0.33807455    -0.24300
H1496       H  0.04763685  0.61152751  0.37725701     0.14700
H1497       H  0.18782146  0.60452375  0.41102104     0.14700
C1498       C  0.15189414  0.66226869  0.44995015    -0.24300
H1499       H  0.05124239  0.55918461  0.33516940     0.04900
H1500       H  0.08709571  0.52417933  0.34816399     0.08100
H1501       H  0.09617652  0.55825050  0.30904392     0.08100
H1502       H  0.13626198  0.65928933  0.47791583     0.08100
H1503       H  0.14987835  0.69275883  0.43952891     0.08100
H1504       H  0.18310322  0.65608570  0.45509345     0.04900
C1505       C  0.11734005  0.64708968  0.60594459    -0.20900
C1506       C  0.08953786  0.63368156  0.57881408    -0.07500
C1507       C  0.08727114  0.59291033  0.57134733     0.13400
C1508       C  0.11065700  0.56738759  0.59277759    -0.21000
C1509       C  0.13637234  0.58092982  0.62145003    -0.07500
C1510       C  0.14120614  0.62148303  0.62653849     0.13400
C1511       C  0.17309516  0.63818085  0.65176126    -0.24300
H1512       H  0.12085661  0.67803294  0.61112548     0.14700
H1513       H  0.10862729  0.53640565  0.58719041     0.14700
C1514       C  0.06111411  0.57549532  0.54062563    -0.24300
H1515       H  0.17554058  0.67034397  0.64892391     0.04900
H1516       H  0.20150938  0.62580486  0.64332777     0.08100
H1517       H  0.16704847  0.63161466  0.68245046     0.08100
H1518       H  0.06823705  0.58859449  0.51205464     0.08100
H1519       H  0.03014069  0.58038958  0.54794404     0.08100
H1520       H  0.06479447  0.54354245  0.53797592     0.04900
C1521       C  0.91322626  0.59635656  0.59049898    -0.20900
C1522       C  0.89461866  0.63039883  0.57832429    -0.07500
C1523       C  0.85444814  0.63506423  0.58631427     0.13400
C1524       C  0.83449580  0.60609076  0.60712657    -0.21000
C1525       C  0.85331874  0.57256581  0.61942078    -0.07500
C1526       C  0.89288534  0.56724472  0.61090871     0.13400
C1527       C  0.91350732  0.53097976  0.62343599    -0.24300
H1528       H  0.94387125  0.59266735  0.58435512     0.14700
H1529       H  0.80385904  0.60934111  0.61354724     0.14700
C1530       C  0.83181605  0.66943656  0.57178370    -0.24300
H1531       H  0.94466534  0.53175149  0.61491085     0.04900
H1532       H  0.89953159  0.50514795  0.60973206     0.08100
H1533       H  0.91189966  0.52791853  0.65536176     0.08100
H1534       H  0.83598512  0.67266715  0.54015051     0.08100
H1535       H  0.84154243  0.69645030  0.58668839     0.08100
H1536       H  0.80010206  0.66577648  0.57721344     0.04900
C1537       C  0.83272404  0.58405462  0.40797157    -0.20900
C1538       C  0.84490473  0.56485638  0.37438960    -0.07500
C1539       C  0.88309969  0.57339248  0.36019239     0.13400
C1540       C  0.90554768  0.60379227  0.37672620    -0.21000
C1541       C  0.89272412  0.62386670  0.40932689    -0.07500
C1542       C  0.85679485  0.61241443  0.42616808     0.13400
C1543       C  0.84467291  0.62954535  0.46403821    -0.24300
H1544       H  0.80438484  0.57688229  0.42000626     0.14700
H1545       H  0.93389568  0.61107337  0.36472691     0.14700
C1546       C  0.90224941  0.54989967  0.32894466    -0.24300
H1547       H  0.81471242  0.62026153  0.47236104     0.04900
H1548       H  0.84621903  0.66159296  0.46186579     0.08100
H1549       H  0.86511943  0.62033247  0.48705925     0.08100
H1550       H  0.90576698  0.56790202  0.30244671     0.08100
H1551       H  0.88606000  0.52279001  0.32179784     0.08100
H1552       H  0.93142226  0.54072318  0.33897270     0.04900
C1553       C  0.07423790  0.93171268  0.40529436    -0.20900
C1554       C  0.07209041  0.89345205  0.39102669    -0.07500
C1555       C  0.08712322  0.88644201  0.35334014     0.13400
C1556       C  0.10526404  0.91710781  0.33243449    -0.21000
C1557       C  0.10825266  0.95495865  0.34741115    -0.07500
C1558       C  0.09195100  0.96224335  0.38417098     0.13400
C1559       C  0.09482175  0.00175194  0.40238721    -0.24300
H1560       H  0.06282779  0.93776879  0.43379959     0.14700
H1561       H  0.11762414  0.91144302  0.30422801     0.14700
C1562       C  0.08382632  0.84709929  0.33433894    -0.24300
H1563       H  0.08184059  0.00217340  0.43176683     0.04900
H1564       H  0.07900218  0.02307680  0.38444155     0.08100
H1565       H  0.12594488  0.01021308  0.40510881     0.08100
H1566       H  0.05291103  0.83711690  0.33381123     0.08100
H1567       H  0.10185617  0.82585190  0.35020764     0.08100
H1568       H  0.09436449  0.84787339  0.30400234     0.04900
C1569       C  0.87807023  0.90903285  0.41044851    -0.20900
C1570       C  0.90404277  0.88406380  0.39226785    -0.07500
C1571       C  0.91354066  0.88943047  0.35291067     0.13400
C1572       C  0.89740016  0.92071991  0.33277760    -0.21000
C1573       C  0.87139597  0.94571164  0.35101691    -0.07500
C1574       C  0.86108931  0.93959997  0.39010198     0.13400
C1575       C  0.83281972  0.96552156  0.41065916    -0.24300
H1576       H  0.87105476  0.90447255  0.44070306     0.14700
H1577       H  0.90462462  0.92543804  0.30260163     0.14700
C1578       C  0.94127198  0.86283695  0.33250838    -0.24300
H1579       H  0.82943698  0.95724304  0.44154979     0.04900
H1580       H  0.80368334  0.96322208  0.39697483     0.08100
H1581       H  0.84319688  0.99621682  0.40947201     0.08100
H1582       H  0.92921691  0.83265619  0.33233680     0.08100
H1583       H  0.96985102  0.86320090  0.34754852     0.08100
H1584       H  0.94613964  0.87189435  0.30202145     0.04900
C1585       C  0.91204617  0.92592574  0.58406127    -0.20900
C1586       C  0.89905429  0.88692723  0.58601059    -0.07500
C1587       C  0.86668281  0.87763632  0.61017421     0.13400
C1588       C  0.85033204  0.90685805  0.63297990    -0.21000
C1589       C  0.86385860  0.94556722  0.63146854    -0.07500
C1590       C  0.89445754  0.95539868  0.60561295     0.13400
C1591       C  0.90728704  0.99684965  0.59811476    -0.24300
H1592       H  0.93610171  0.93369907  0.56518590     0.14700
H1593       H  0.82652967  0.89935738  0.65230544     0.14700
C1594       C  0.84793992  0.83759045  0.61166340    -0.24300
H1595       H  0.92905221  0.99897545  0.57445910     0.04900
H1596       H  0.92119452  0.00978565  0.62395272     0.08100
H1597       H  0.88187164  0.01394184  0.58899075     0.08100
H1598       H  0.86823956  0.81637998  0.62455778     0.08100
H1599       H  0.83929618  0.82832544  0.58210138     0.08100
H1600       H  0.82121306  0.83702461  0.62970766     0.04900
C1601       C  0.09852786  0.91606981  0.57855988    -0.20900
C1602       C  0.06961663  0.89058120  0.59265721    -0.07500
C1603       C  0.05894200  0.89207746  0.63203831     0.13400
C1604       C  0.07743317  0.91923443  0.65643796    -0.21000
C1605       C  0.10667862  0.94449717  0.64263123    -0.07500
C1606       C  0.11754900  0.94279625  0.60317070     0.13400
C1607       C  0.14912894  0.96899828  0.58679848    -0.24300
H1608       H  0.10693510  0.91430944  0.54842534     0.14700
H1609       H  0.06971762  0.91993395  0.68661334     0.14700
C1610       C  0.02780914  0.86522995  0.64828270    -0.24300
H1611       H  0.15266864  0.96473316  0.55519260     0.04900
H1612       H  0.17742238  0.96264143  0.60067533     0.08100
H1613       H  0.14204262  0.99993390  0.59173877     0.08100
H1614       H  0.03697804  0.83450725  0.64591564     0.08100
H1615       H  0.00021375  0.86905360  0.63206073     0.08100
H1616       H  0.02209205  0.87125428  0.67927415     0.04900
C1617       C  0.22590572  0.82920531  0.46642407    -0.20900
C1618       C  0.25091897  0.81305001  0.49425165    -0.07500
C1619       C  0.23399570  0.78901691  0.52388732     0.13400
C1620       C  0.19416619  0.78018070  0.52291458    -0.21000
C1621       C  0.17028401  0.79347746  0.49320064    -0.07500
C1622       C  0.18600392  0.81974085  0.46542027     0.13400
C1623       C  0.16099401  0.83877014  0.43504984    -0.24300
H1624       H  0.23712505  0.84842156  0.44432478     0.14700
H1625       H  0.18192328  0.76109419  0.54496322     0.14700
C1626       C  0.25624782  0.76997549  0.55650829    -0.24300
H1627       H  0.17761704  0.86075220  0.41786214     0.04900
H1628       H  0.13649640  0.85391307  0.44911519     0.08100
H1629       H  0.14957857  0.81669410  0.41443210     0.08100
H1630       H  0.28799435  0.77467539  0.55624771     0.08100
H1631       H  0.25129311  0.73795645  0.55541884     0.08100
H1632       H  0.24528580  0.78085715  0.58459449     0.04900
C1633       C  0.35716563  0.70879885  0.50721971    -0.20900
C1634       C  0.37016457  0.73723013  0.48099485    -0.07500
C1635       C  0.39341613  0.72595183  0.44930814     0.13400
C1636       C  0.40420440  0.68655599  0.44572873    -0.21000
C1637       C  0.39135929  0.65837241  0.47262250    -0.07500
C1638       C  0.36624451  0.66973196  0.50279598     0.13400
C1639       C  0.34885623  0.64141564  0.53159831    -0.24300
H1640       H  0.33840495  0.71706075  0.53094743     0.14700
H1641       H  0.42400497  0.67811465  0.42298923     0.14700
C1642       C  0.40634356  0.75502778  0.41917769    -0.24300
H1643       H  0.31667211  0.64386619  0.53154952     0.04900
H1644       H  0.35999526  0.64873021  0.56080717     0.08100
H1645       H  0.35556289  0.61069435  0.52516912     0.08100
H1646       H  0.42443727  0.77832544  0.43269269     0.08100
H1647       H  0.38051113  0.76805822  0.40536536     0.08100
H1648       H  0.42390360  0.74121501  0.39619995     0.04900
C1649       C  0.19891562  0.25828758  0.46972197    -0.20900
C1650       C  0.17359946  0.24216027  0.49743506    -0.07500
C1651       C  0.18718861  0.21200708  0.52160258     0.13400
C1652       C  0.22594844  0.20057643  0.51896642    -0.21000
C1653       C  0.25271767  0.21872167  0.49355558    -0.07500
C1654       C  0.23783372  0.24641534  0.46669375     0.13400
C1655       C  0.26112949  0.26368327  0.43367051    -0.24300
H1656       H  0.18808502  0.28000244  0.44978555     0.14700
H1657       H  0.23433956  0.17606127  0.53632853     0.14700
C1658       C  0.16068538  0.19005321  0.54917579    -0.24300
H1659       H  0.24519693  0.25861997  0.40613844     0.04900
H1660       H  0.29012235  0.25086366  0.42992788     0.08100
H1661       H  0.26483217  0.29555418  0.43798657     0.08100
H1662       H  0.13524289  0.17792219  0.53321086     0.08100
H1663       H  0.15084056  0.20963672  0.57251399     0.08100
H1664       H  0.17547219  0.16532603  0.56340972     0.04900
C1665       C  0.40793541  0.27623935  0.45776867    -0.20900
C1666       C  0.39319118  0.26399104  0.49371458    -0.07500
C1667       C  0.40204237  0.28588621  0.52699918     0.13400
C1668       C  0.42437038  0.32016243  0.52342152    -0.21000
C1669       C  0.43598215  0.33484124  0.48705931    -0.07500
C1670       C  0.42838770  0.31196562  0.45371369     0.13400
C1671       C  0.43805002  0.32526583  0.41325325    -0.24300
H1672       H  0.40048863  0.25954685  0.43217518     0.14700
H1673       H  0.43034232  0.33727443  0.54912949     0.14700
C1674       C  0.38591960  0.27448057  0.56603086    -0.24300
H1675       H  0.45850108  0.30454895  0.39990701     0.04900
H1676       H  0.45130535  0.35474500  0.41180920     0.08100
H1677       H  0.41097992  0.32573212  0.39569591     0.08100
H1678       H  0.39590872  0.24506961  0.57406372     0.08100
H1679       H  0.35362644  0.27438033  0.56526476     0.08100
H1680       H  0.39552931  0.29504253  0.58899821     0.04900
C1681       C  0.67111879  0.28052572  0.01044004    -0.20900
C1682       C  0.68735261  0.25578218  0.98256738    -0.07500
C1683       C  0.71032162  0.27311846  0.95261417     0.13400
C1684       C  0.72207266  0.31211616  0.95587206    -0.21000
C1685       C  0.70979512  0.33523112  0.98665329    -0.07500
C1686       C  0.68205007  0.31987936  0.01295974     0.13400
C1687       C  0.66276598  0.34486277  0.04299740    -0.24300
H1688       H  0.64961902  0.26966708  0.03056003     0.14700
H1689       H  0.74138768  0.32449486  0.93412960     0.14700
C1690       C  0.72408732  0.25191863  0.91703016    -0.24300
H1691       H  0.63951695  0.32866310  0.05886569     0.04900
H1692       H  0.64915309  0.37027294  0.02878777     0.08100
H1693       H  0.68440328  0.35495883  0.06473498     0.08100
H1694       H  0.71274796  0.22180591  0.91435318     0.08100
H1695       H  0.75638303  0.25106197  0.91702211     0.08100
H1696       H  0.71441886  0.26779970  0.89081117     0.04900
C1697       C  0.82360006  0.12469958  0.01105845    -0.20900
C1698       C  0.83764273  0.10864437  0.97648938    -0.07500
C1699       C  0.81196774  0.10510568  0.94461901     0.13400
C1700       C  0.77295643  0.11695850  0.94872369    -0.21000
C1701       C  0.75926624  0.13221861  0.98381152    -0.07500
C1702       C  0.78525291  0.13640789  0.01520133     0.13400
C1703       C  0.77399963  0.15382442  0.05357742    -0.24300
H1704       H  0.84272080  0.12756509  0.03583494     0.14700
H1705       H  0.75343657  0.11559004  0.92411846     0.14700
C1706       C  0.82533127  0.08894247  0.90656667    -0.24300
H1707       H  0.77902699  0.13229182  0.07698550     0.04900
H1708       H  0.74313783  0.16233640  0.05506966     0.08100
H1709       H  0.79227793  0.18017130  0.05922335     0.08100
H1710       H  0.83623630  0.05901697  0.91058180     0.08100
H1711       H  0.84901555  0.10773590  0.89460032     0.08100
H1712       H  0.80133379  0.08773643  0.88504109     0.04900
C1713       C  0.24921709  0.30415994  0.02751085    -0.20900
C1714       C  0.26502192  0.33056028  0.00073814    -0.07500
C1715       C  0.29525511  0.31806553  0.97619068     0.13400
C1716       C  0.30617369  0.27889577  0.97661847    -0.21000
C1717       C  0.28805956  0.25120475  0.00109955    -0.07500
C1718       C  0.26076408  0.26513059  0.02878596     0.13400
C1719       C  0.24286521  0.24053250  0.06060987    -0.24300
H1720       H  0.22763731  0.31413896  0.04791955     0.14700
H1721       H  0.32981079  0.27074161  0.95808185     0.14700
C1722       C  0.31746809  0.34609261  0.95048637    -0.24300
H1723       H  0.24903361  0.25446312  0.08895316     0.04900
H1724       H  0.25389967  0.21063260  0.06248853     0.08100
H1725       H  0.21083848  0.23868461  0.05647467     0.08100
H1726       H  0.32986973  0.37030927  0.96802951     0.08100
H1727       H  0.29777478  0.35767904  0.92809185     0.08100
H1728       H  0.34193259  0.33197138  0.93529822     0.04900
C1729       C  0.22599313  0.08662874  0.01280474    -0.20900
C1730       C  0.23593712  0.11460144  0.98478586    -0.07500
C1731       C  0.21181002  0.11871685  0.95174720     0.13400
C1732       C  0.17625340  0.09814901  0.94980727    -0.21000
C1733       C  0.16470613  0.07284436  0.97949206    -0.07500
C1734       C  0.19056608  0.06556245  0.01045548     0.13400
C1735       C  0.18028570  0.03619547  0.04138020    -0.24300
H1736       H  0.24481237  0.08293784  0.03767958     0.14700
H1737       H  0.15661298  0.10332654  0.92583556     0.14700
C1738       C  0.22230887  0.14506960  0.91830761    -0.24300
H1739       H  0.20365660  0.03397314  0.06345170     0.04900
H1740       H  0.17593653  0.00709838  0.02804042     0.08100
H1741       H  0.15308787  0.04450764  0.05621155     0.08100
H1742       H  0.22148406  0.12804721  0.89106604     0.08100
H1743       H  0.25194476  0.15800416  0.92078611     0.08100
H1744       H  0.20096626  0.16890527  0.91622882     0.04900
C1745       C  0.74086245  0.76723198  0.47544326    -0.20900
C1746       C  0.73050649  0.80401884  0.48990977    -0.07500
C1747       C  0.76138626  0.83106332  0.49790859     0.13400
C1748       C  0.79995855  0.81787305  0.49928064    -0.21000
C1749       C  0.80925228  0.77975789  0.48865120    -0.07500
C1750       C  0.77945871  0.75481300  0.47503318     0.13400
C1751       C  0.78789652  0.71438952  0.46158416    -0.24300
H1752       H  0.71874988  0.74766036  0.46406433     0.14700
H1753       H  0.82328736  0.83812181  0.50690135     0.14700
C1754       C  0.75584670  0.87430303  0.50223326    -0.24300
H1755       H  0.76131775  0.69874194  0.45128875     0.04900
H1756       H  0.79964650  0.69789718  0.48638339     0.08100
H1757       H  0.80908283  0.71543998  0.43739935     0.08100
H1758       H  0.76288725  0.88332016  0.53227580     0.08100
H1759       H  0.72619931  0.88370531  0.49452970     0.08100
H1760       H  0.77581968  0.89010945  0.48216251     0.04900
C1761       C  0.56543724  0.74304163  0.48269675    -0.20900
C1762       C  0.59242297  0.75351384  0.51137628    -0.07500
C1763       C  0.59420592  0.73102639  0.54574531     0.13400
C1764       C  0.57222061  0.69632470  0.54862015    -0.21000
C1765       C  0.54829702  0.68393301  0.51814686    -0.07500
C1766       C  0.54351509  0.70827935  0.48556720     0.13400
C1767       C  0.51611284  0.69682850  0.45332459    -0.24300
H1768       H  0.56321128  0.76078977  0.45695254     0.14700
H1769       H  0.57554558  0.67777990  0.57379186     0.14700
C1770       C  0.61944613  0.74245691  0.57958859    -0.24300
H1771       H  0.51511309  0.71946013  0.43037226     0.04900
H1772       H  0.48631923  0.69275900  0.46515773     0.08100
H1773       H  0.52544340  0.66922851  0.43983839     0.08100
H1774       H  0.63457713  0.77072982  0.57511972     0.08100
H1775       H  0.64159715  0.71984681  0.58469443     0.08100
H1776       H  0.60111022  0.74514414  0.60582526     0.04900
C1777       C  0.68488897  0.74706110  0.01996292    -0.20900
C1778       C  0.70111811  0.77397769  0.99331938    -0.07500
C1779       C  0.72818336  0.75936160  0.96577013     0.13400
C1780       C  0.73976201  0.72030427  0.96783767    -0.21000
C1781       C  0.72493358  0.69463746  0.99591613    -0.07500
C1782       C  0.69628009  0.70812154  0.02166337     0.13400
C1783       C  0.67573938  0.68123009  0.04985276    -0.24300
H1784       H  0.66241426  0.75529429  0.03962981     0.14700
H1785       H  0.76065203  0.70972260  0.94703004     0.14700
C1786       C  0.74581067  0.78320324  0.93325575    -0.24300
H1787       H  0.65191327  0.69585669  0.06555819     0.04900
H1788       H  0.69651229  0.67063107  0.07190695     0.08100
H1789       H  0.66262774  0.65631107  0.03387370     0.08100
H1790       H  0.77798889  0.78395574  0.93632636     0.08100
H1791       H  0.73595832  0.81354096  0.93171247     0.08100
H1792       H  0.73822495  0.76933990  0.90521039     0.04900
C1793       C  0.76249390  0.93405309  0.97186775    -0.20900
C1794       C  0.74984490  0.91291323  0.00419851    -0.07500
C1795       C  0.76894085  0.91832532  0.04009685     0.13400
C1796       C  0.80190048  0.94290550  0.04222479    -0.21000
C1797       C  0.81690619  0.96082046  0.00899252    -0.07500
C1798       C  0.79604524  0.95774183  0.97367712     0.13400
C1799       C  0.80933881  0.97780470  0.93705468    -0.24300
H1800       H  0.74745337  0.93031175  0.94451186     0.14700
H1801       H  0.81798784  0.94529803  0.06912720     0.14700
C1802       C  0.75547075  0.89724250  0.07590176    -0.24300
H1803       H  0.78572450  0.99647290  0.92591336     0.04900
H1804       H  0.81631870  0.95570428  0.91484565     0.08100
H1805       H  0.83539799  0.99668490  0.94158206     0.08100
H1806       H  0.75713737  0.86532019  0.07160172     0.08100
H1807       H  0.72507073  0.90539434  0.08225081     0.08100
H1808       H  0.77365277  0.90493302  0.10142755     0.04900
C1809       C  0.29815315  0.70325978  0.98408736    -0.20900
C1810       C  0.26762907  0.69070897  0.00816346    -0.07500
C1811       C  0.25238662  0.71630120  0.03578583     0.13400
C1812       C  0.26648060  0.75446588  0.03691613    -0.21000
C1813       C  0.29329807  0.76866649  0.00930405    -0.07500
C1814       C  0.31277595  0.74141372  0.98593659     0.13400
C1815       C  0.35140603  0.74960770  0.96679006    -0.24300
H1816       H  0.31230709  0.68248414  0.96542791     0.14700
H1817       H  0.25477848  0.77398361  0.05836577     0.14700
C1818       C  0.21969734  0.70455546  0.06249857    -0.24300
H1819       H  0.37235561  0.72693461  0.97556880     0.04900
H1820       H  0.36461149  0.77776014  0.97592752     0.08100
H1821       H  0.34810917  0.74873579  0.93487204     0.08100
H1822       H  0.22927198  0.68173787  0.08296674     0.08100
H1823       H  0.19468119  0.69373438  0.04501324     0.08100
H1824       H  0.20963286  0.72945680  0.08004848     0.04900
C1825       C  0.21332110  0.91574400  0.98598592    -0.20900
C1826       C  0.22543857  0.89504227  0.01794990    -0.07500
C1827       C  0.20020685  0.89058107  0.05010125     0.13400
C1828       C  0.16205023  0.90511567  0.04812441    -0.21000
C1829       C  0.14855478  0.92388203  0.01464337    -0.07500
C1830       C  0.17567095  0.93002956  0.98331753     0.13400
C1831       C  0.16676591  0.95160966  0.94624110    -0.24300
H1832       H  0.23315991  0.91898327  0.96182087     0.14700
H1833       H  0.14265017  0.90126406  0.07255169     0.14700
C1834       C  0.21388943  0.87136839  0.08675711    -0.24300
H1835       H  0.19223401  0.95381171  0.92655127     0.04900
H1836       H  0.15882943  0.98180430  0.95307674     0.08100
H1837       H  0.14345418  0.93631518  0.92968860     0.08100
H1838       H  0.24000252  0.88722674  0.09783694     0.08100
H1839       H  0.22129360  0.84057134  0.08139384     0.08100
H1840       H  0.19121164  0.87175848  0.10959249     0.04900
C1841       C  0.29309443  0.04472346  0.26049905    -0.20900
C1842       C  0.31564531  0.01310767  0.27187184    -0.07500
C1843       C  0.29837455  0.98447678  0.29637385     0.13400
C1844       C  0.25880604  0.98719436  0.30663331    -0.21000
C1845       C  0.23540080  0.01801252  0.29372608    -0.07500
C1846       C  0.25401445  0.04823617  0.27155339     0.13400
C1847       C  0.23447218  0.08508866  0.25822259    -0.24300
H1848       H  0.30624153  0.06748665  0.24283495     0.14700
H1849       H  0.24682088  0.96492263  0.32527668     0.14700
C1850       C  0.32159264  0.95161755  0.31326364    -0.24300
H1851       H  0.25122770  0.11073127  0.26912251     0.04900
H1852       H  0.20426267  0.08847136  0.26810582     0.08100
H1853       H  0.23427447  0.08613971  0.22613223     0.08100
H1854       H  0.34716951  0.96358910  0.32920004     0.08100
H1855       H  0.33136270  0.93196328  0.28994405     0.08100
H1856       H  0.30421382  0.93366582  0.33392659     0.04900
C1857       C  0.73247552  0.99062919  0.30370000    -0.20900
C1858       C  0.75983871  0.01353726  0.28292396    -0.07500
C1859       C  0.74525322  0.04042563  0.25507631     0.13400
C1860       C  0.70526749  0.04011886  0.24627485    -0.21000
C1861       C  0.67916207  0.01482162  0.26508851    -0.07500
C1862       C  0.69274935  0.99076217  0.29515042     0.13400
C1863       C  0.66529742  0.96663366  0.31999688    -0.24300
H1864       H  0.74110563  0.97344601  0.32816987     0.14700
H1865       H  0.69419169  0.05982849  0.22450512     0.14700
C1866       C  0.77067592  0.07071111  0.23515239    -0.24300
H1867       H  0.68060902  0.95206752  0.34420467     0.04900
H1868       H  0.65111429  0.94341181  0.30249683     0.08100
H1869       H  0.64284657  0.98557539  0.33278357     0.08100
H1870       H  0.79187701  0.05717404  0.21556169     0.08100
H1871       H  0.78610212  0.08904457  0.25670800     0.08100
H1872       H  0.75322514  0.09065918  0.21700585     0.04900
C1873       C  0.38638841  0.88641205  0.36131742    -0.20900
C1874       C  0.41724112  0.91084536  0.37366854    -0.07500
C1875       C  0.43052354  0.90741031  0.41243378     0.13400
C1876       C  0.40968537  0.88328686  0.43828029    -0.21000
C1877       C  0.37709686  0.86130434  0.42619872    -0.07500
C1878       C  0.36720983  0.86081151  0.38656791     0.13400
C1879       C  0.33803227  0.83254453  0.36921605    -0.24300
H1880       H  0.37716846  0.88665075  0.33135374     0.14700
H1881       H  0.41861497  0.88211938  0.46828058     0.14700
C1882       C  0.46706260  0.92768822  0.42680433    -0.24300
H1883       H  0.35226626  0.81595970  0.34577135     0.04900
H1884       H  0.31327732  0.84874362  0.35677040     0.08100
H1885       H  0.32664830  0.81075136  0.39011099     0.08100
H1886       H  0.46329312  0.95969304  0.42692966     0.08100
H1887       H  0.49204673  0.91997246  0.40814211     0.08100
H1888       H  0.47440070  0.91882704  0.45681791     0.04900
C1889       C  0.60731752  0.90518430  0.43932017    -0.20900
C1890       C  0.61290590  0.86582136  0.43090419    -0.07500
C1891       C  0.60290380  0.85143645  0.39403252     0.13400
C1892       C  0.58695778  0.87671372  0.36646998    -0.21000
C1893       C  0.58078060  0.91620403  0.37482248    -0.07500
C1894       C  0.59135214  0.93064036  0.41191365     0.13400
C1895       C  0.58734061  0.97295778  0.42264889    -0.24300
H1896       H  0.61631921  0.91624696  0.46730082     0.14700
H1897       H  0.57883256  0.86537397  0.33833129     0.14700
C1898       C  0.60880917  0.80936458  0.38384509    -0.24300
H1899       H  0.60016702  0.97938634  0.45147014     0.04900
H1900       H  0.55615208  0.98067566  0.42405816     0.08100
H1901       H  0.60263457  0.99169399  0.40109483     0.08100
H1902       H  0.59183093  0.79048279  0.40385043     0.08100
H1903       H  0.64010051  0.80222455  0.38619505     0.08100
H1904       H  0.59908874  0.80277675  0.35390017     0.04900
C1905       C  0.39482438  0.09021865  0.40772689    -0.20900
C1906       C  0.40916189  0.10967505  0.37484805    -0.07500
C1907       C  0.40198572  0.15003468  0.37018631     0.13400
C1908       C  0.38035265  0.16948223  0.39829552    -0.21000
C1909       C  0.36595946  0.14988603  0.43083751    -0.07500
C1910       C  0.37337669  0.10990188  0.43583326     0.13400
C1911       C  0.35883278  0.08798810  0.47078047    -0.24300
H1912       H  0.40012147  0.05938577  0.41127449     0.14700
H1913       H  0.37510259  0.20037073  0.39522684     0.14700
C1914       C  0.41802765  0.17332233  0.33654591    -0.24300
H1915       H  0.36614720  0.05664014  0.46953036     0.04900
H1916       H  0.32671653  0.09024399  0.47272808     0.08100
H1917       H  0.37253738  0.10032552  0.49711270     0.08100
H1918       H  0.40388198  0.16390552  0.30921706     0.08100
H1919       H  0.44994529  0.16955728  0.33440423     0.08100
H1920       H  0.41261477  0.20493287  0.33984016     0.04900
C1921       C  0.52665986  0.22229791  0.24337191    -0.20900
C1922       C  0.49930890  0.19652511  0.22704676    -0.07500
C1923       C  0.47511597  0.20975496  0.19688128     0.13400
C1924       C  0.47656062  0.24905074  0.18629913    -0.21000
C1925       C  0.50090991  0.27629125  0.20538683    -0.07500
C1926       C  0.52861572  0.26165599  0.23232272     0.13400
C1927       C  0.56115027  0.28583808  0.24994329    -0.24300
H1928       H  0.54698653  0.21155738  0.26474850     0.14700
H1929       H  0.45891518  0.25767985  0.16212008     0.14700
C1930       C  0.44876201  0.18239806  0.17435662    -0.24300
H1931       H  0.58938252  0.27168600  0.24419325     0.04900
H1932       H  0.55693843  0.28764179  0.28170302     0.08100
H1933       H  0.56370021  0.31568519  0.23820667     0.08100
H1934       H  0.42546430  0.17046968  0.19335671     0.08100
H1935       H  0.46600699  0.15829688  0.16218594     0.08100
H1936       H  0.43421565  0.19723948  0.14985036     0.04900
C1937       C  0.46926339  0.77715776  0.18947585    -0.20900
C1938       C  0.50180966  0.75493404  0.19973570    -0.07500
C1939       C  0.53377650  0.77473172  0.21801502     0.13400
C1940       C  0.53009194  0.81363062  0.22917093    -0.21000
C1941       C  0.49654795  0.83485012  0.22118147    -0.07500
C1942       C  0.46633444  0.81661300  0.19951414     0.13400
C1943       C  0.43141643  0.83855180  0.18536234    -0.24300
H1944       H  0.44567816  0.76435893  0.17317187     0.14700
H1945       H  0.55418519  0.82759527  0.24431304     0.14700
C1946       C  0.57255904  0.75663356  0.22719431    -0.24300
H1947       H  0.41226731  0.82039710  0.16651872     0.04900
H1948       H  0.44127193  0.86416453  0.16811636     0.08100
H1949       H  0.41353304  0.84802780  0.21018643     0.08100
H1950       H  0.57580484  0.72660402  0.21689811     0.08100
H1951       H  0.57722765  0.75664531  0.25896889     0.08100
H1952       H  0.59622008  0.77417701  0.21343742     0.04900
C1953       C  0.63224755  0.08577135  0.10856098    -0.20900
C1954       C  0.59644537  0.10196978  0.11851161    -0.07500
C1955       C  0.58354493  0.13524164  0.09884891     0.13400
C1956       C  0.60659617  0.15138521  0.06928870    -0.21000
C1957       C  0.64259879  0.13533242  0.05878023    -0.07500
C1958       C  0.65569421  0.10208689  0.07913451     0.13400
C1959       C  0.69446970  0.08365898  0.07204909    -0.24300
H1960       H  0.64207338  0.06022370  0.12400857     0.14700
H1961       H  0.59612305  0.17670705  0.05396166     0.14700
C1962       C  0.54558856  0.15391707  0.10934720    -0.24300
H1963       H  0.71167725  0.08383784  0.09924917     0.04900
H1964       H  0.71202553  0.09894904  0.04995724     0.08100
H1965       H  0.68990521  0.05305515  0.06259730     0.08100
H1966       H  0.54627064  0.16296797  0.14014873     0.08100
H1967       H  0.52112674  0.13287874  0.10491680     0.08100
H1968       H  0.53999240  0.18010848  0.09141326     0.04900
C1969       C  0.61542904  0.89963513  0.12715719    -0.20900
C1970       C  0.58889096  0.92841404  0.11606841    -0.07500
C1971       C  0.58490788  0.93703643  0.07597101     0.13400
C1972       C  0.60782060  0.91736992  0.04901528    -0.21000
C1973       C  0.63464625  0.88927730  0.06033558    -0.07500
C1974       C  0.63889125  0.88066369  0.10025334     0.13400
C1975       C  0.66881849  0.85330362  0.11647011    -0.24300
H1976       H  0.61894574  0.89237380  0.15746164     0.14700
H1977       H  0.60439209  0.92377910  0.01852093     0.14700
C1978       C  0.55684097  0.96667643  0.06056143    -0.24300
H1979       H  0.68554888  0.86820124  0.13978210     0.04900
H1980       H  0.69057465  0.84386660  0.09517688     0.08100
H1981       H  0.65392681  0.82721310  0.12889141     0.08100
H1982       H  0.56400393  0.99588569  0.07255136     0.08100
H1983       H  0.52654258  0.95787887  0.06808599     0.08100
H1984       H  0.55816635  0.96923984  0.02857222     0.04900
C1985       C  0.37191693  0.92429586  0.05292688    -0.20900
C1986       C  0.34934282  0.89217810  0.06506529    -0.07500
C1987       C  0.34849784  0.88229996  0.10478922     0.13400
C1988       C  0.37327244  0.90207373  0.13026959    -0.21000
C1989       C  0.39752666  0.93312173  0.11810155    -0.07500
C1990       C  0.39581621  0.94517783  0.07878924     0.13400
C1991       C  0.41805397  0.98023028  0.06353823    -0.24300
H1992       H  0.37119581  0.93299755  0.02286129     0.14700
H1993       H  0.37269965  0.89339139  0.16039568     0.14700
C1994       C  0.32056439  0.85277154  0.12226655    -0.24300
H1995       H  0.41109529  0.98621780  0.03274066     0.04900
H1996       H  0.44982978  0.97525352  0.06526806     0.08100
H1997       H  0.41034761  0.00649471  0.08036240     0.08100
H1998       H  0.33701618  0.82765623  0.13365480     0.08100
H1999       H  0.29799523  0.84212423  0.10191631     0.08100
H2000       H  0.30469495  0.86638709  0.14655888     0.04900
C2001       C  0.41463991  0.11983518  0.08981885    -0.20900
C2002       C  0.39672234  0.10079862  0.12111908    -0.07500
C2003       C  0.35549465  0.09879166  0.12292482     0.13400
C2004       C  0.33339697  0.11574588  0.09322480    -0.21000
C2005       C  0.35147818  0.13486643  0.06211873    -0.07500
C2006       C  0.39253402  0.13705773  0.06047212     0.13400
C2007       C  0.41312575  0.15705194  0.02746973    -0.24300
H2008       H  0.44614598  0.12144004  0.08846971     0.14700
H2009       H  0.30187451  0.11434019  0.09436543     0.14700
C2010       C  0.33463503  0.07792703  0.15542516    -0.24300
H2011       H  0.44526350  0.15657482  0.03086570     0.04900
H2012       H  0.40423546  0.18791846  0.02571583     0.08100
H2013       H  0.40554550  0.14177854  0.00025276     0.08100
H2014       H  0.34058915  0.09302225  0.18316381     0.08100
H2015       H  0.34454792  0.04737129  0.15732374     0.08100
H2016       H  0.30260083  0.07730741  0.15103851     0.04900
C2017       C  0.75085537  0.23383009  0.53864789    -0.20900
C2018       C  0.73635612  0.20570003  0.51246516    -0.07500
C2019       C  0.76365596  0.18559434  0.48953581     0.13400
C2020       C  0.80159230  0.20061302  0.48615613    -0.21000
C2021       C  0.81409775  0.23250209  0.50831748    -0.07500
C2022       C  0.78882877  0.24863516  0.53582005     0.13400
C2023       C  0.80080215  0.28298657  0.56055316    -0.24300
H2024       H  0.73136705  0.24662344  0.55949764     0.14700
H2025       H  0.82228390  0.18580118  0.46790112     0.14700
C2026       C  0.75598063  0.14568829  0.47319773    -0.24300
H2027       H  0.77605528  0.29397076  0.57777775     0.04900
H2028       H  0.81156292  0.30721648  0.54188188     0.08100
H2029       H  0.82391071  0.27464935  0.58122842     0.08100
H2030       H  0.75551878  0.14680327  0.44112351     0.08100
H2031       H  0.72866856  0.13284231  0.48460714     0.08100
H2032       H  0.77943454  0.12580354  0.48242938     0.04900
C2033       C  0.61225176  0.09936951  0.39865906    -0.20900
C2034       C  0.58235161  0.11479281  0.37635652    -0.07500
C2035       C  0.56917247  0.15269279  0.38422119     0.13400
C2036       C  0.58703035  0.17485051  0.41378783    -0.21000
C2037       C  0.61762782  0.15978424  0.43585512    -0.07500
C2038       C  0.62968754  0.12088246  0.42859446     0.13400
C2039       C  0.65901269  0.09972120  0.45304691    -0.24300
H2040       H  0.62154669  0.06985441  0.39318326     0.14700
H2041       H  0.57729582  0.20412914  0.41948001     0.14700
C2042       C  0.53557278  0.16920204  0.36197304    -0.24300
H2043       H  0.64720433  0.07049298  0.46108637     0.04900
H2044       H  0.66532944  0.11457596  0.48067820     0.08100
H2045       H  0.68626973  0.09586596  0.43641907     0.08100
H2046       H  0.50945766  0.15020677  0.36619000     0.08100
H2047       H  0.54273522  0.17059186  0.33071392     0.08100
H2048       H  0.52848063  0.19900342  0.37179979     0.04900
C2049       C  0.63413667  0.31615948  0.49333747    -0.20900
C2050       C  0.61601986  0.28376329  0.51144603    -0.07500
C2051       C  0.58613847  0.29086240  0.53866837     0.13400
C2052       C  0.57429801  0.32944806  0.54543992    -0.21000
C2053       C  0.59260694  0.36136191  0.52715184    -0.07500
C2054       C  0.62369143  0.35447723  0.50159886     0.13400
C2055       C  0.64546363  0.38775476  0.48222577    -0.24300
H2056       H  0.65724432  0.31148694  0.47264804     0.14700
H2057       H  0.54931912  0.33445800  0.56359020     0.14700
C2058       C  0.56699429  0.25843559  0.56130144    -0.24300
H2059       H  0.67028770  0.37738393  0.46472283     0.04900
H2060       H  0.65717593  0.40805193  0.50448602     0.08100
H2061       H  0.62593013  0.40382389  0.46257267     0.08100
H2062       H  0.58939098  0.24253122  0.57771555     0.08100
H2063       H  0.55105382  0.23838391  0.54164233     0.08100
H2064       H  0.54562772  0.26961433  0.58245497     0.04900
C2065       C  0.24538227  0.03894412  0.71145284    -0.20900
C2066       C  0.22276094  0.00446371  0.71388488    -0.07500
C2067       C  0.24051188  0.97105749  0.73028959     0.13400
C2068       C  0.28065372  0.97191699  0.73819472    -0.21000
C2069       C  0.30355717  0.00572855  0.73264450    -0.07500
C2070       C  0.28521323  0.04000002  0.71932977     0.13400
C2071       C  0.30680053  0.07807800  0.71202854    -0.24300
H2072       H  0.23206679  0.06622097  0.70431671     0.14700
H2073       H  0.29399099  0.94590650  0.74962819     0.14700
C2074       C  0.21862805  0.93421150  0.74128230    -0.24300
H2075       H  0.28769332  0.10071201  0.69962967     0.04900
H2076       H  0.33057688  0.07359734  0.69090911     0.08100
H2077       H  0.31860655  0.08993564  0.73954038     0.08100
H2078       H  0.22794984  0.90998463  0.72242199     0.08100
H2079       H  0.18667317  0.93665271  0.73971777     0.08100
H2080       H  0.22540385  0.92660901  0.77176052     0.04900
C2081       C  0.68819020  0.97437832  0.72710579    -0.20900
C2082       C  0.66650389  0.00799064  0.72058033    -0.07500
C2083       C  0.68346188  0.03850457  0.69830702     0.13400
C2084       C  0.72236750  0.03590677  0.68642273    -0.21000
C2085       C  0.74542020  0.00368332  0.69592119    -0.07500
C2086       C  0.72659850  0.97114433  0.71415581     0.13400
C2087       C  0.74539556  0.93226573  0.72123864    -0.24300
H2088       H  0.67495585  0.94989810  0.74232466     0.14700
H2089       H  0.73406679  0.05945341  0.66921585     0.14700
C2090       C  0.66073519  0.07355241  0.68567487    -0.24300
H2091       H  0.72751991  0.90893449  0.70738537     0.04900
H2092       H  0.74673286  0.92646911  0.75280244     0.08100
H2093       H  0.77505923  0.92981238  0.70957545     0.08100
H2094       H  0.65256755  0.09093456  0.71129582     0.08100
H2095       H  0.63429328  0.06401434  0.66957014     0.08100
H2096       H  0.67788268  0.09309186  0.66627216     0.04900
C2097       C  0.40213450  0.15763379  0.57389651    -0.20900
C2098       C  0.36442310  0.14821459  0.56100327    -0.07500
C2099       C  0.34499445  0.11475193  0.57667533     0.13400
C2100       C  0.36284135  0.09380008  0.60652135    -0.21000
C2101       C  0.40015471  0.10394277  0.61955106    -0.07500
C2102       C  0.42037586  0.13562905  0.60259806     0.13400
C2103       C  0.46144145  0.14591120  0.61448590    -0.24300
H2104       H  0.41763333  0.18228607  0.56140671     0.14700
H2105       H  0.34816690  0.06837849  0.61866041     0.14700
C2106       C  0.30690765  0.09833399  0.56148698    -0.24300
H2107       H  0.47290385  0.17188847  0.59874502     0.04900
H2108       H  0.48060595  0.12113340  0.60797471     0.08100
H2109       H  0.46255217  0.15213691  0.64594895     0.08100
H2110       H  0.28402865  0.10098998  0.58392124     0.08100
H2111       H  0.29691327  0.11225360  0.53451594     0.08100
H2112       H  0.31035666  0.06701831  0.55455849     0.04900
C2113       C  0.56140370  0.10644261  0.58272944    -0.20900
C2114       C  0.56719638  0.11480244  0.62207401    -0.07500
C2115       C  0.59026404  0.14818184  0.63200250     0.13400
C2116       C  0.61017211  0.16868637  0.60277422    -0.21000
C2117       C  0.60580964  0.15889136  0.56373948    -0.07500
C2118       C  0.57960923  0.12842371  0.55355176     0.13400
C2119       C  0.57200264  0.11708216  0.51234080    -0.24300
H2120       H  0.54295910  0.08195619  0.57447494     0.14700
H2121       H  0.62944773  0.19278180  0.61042304     0.14700
C2122       C  0.59383421  0.16347966  0.67275990    -0.24300
H2123       H  0.55093291  0.09232398  0.50996610     0.04900
H2124       H  0.59944013  0.10767203  0.49942310     0.08100
H2125       H  0.55972660  0.14172838  0.49595603     0.08100
H2126       H  0.60942680  0.14256244  0.69134454     0.08100
H2127       H  0.56443844  0.16899279  0.68467374     0.08100
H2128       H  0.61052736  0.19143021  0.67391762     0.04900
C2129       C  0.58504613  0.89387348  0.54951681    -0.20900
C2130       C  0.61819539  0.87299248  0.56064184    -0.07500
C2131       C  0.63020841  0.87494105  0.59998522     0.13400
C2132       C  0.60897847  0.89746555  0.62609574    -0.21000
C2133       C  0.57536671  0.91744746  0.61502720    -0.07500
C2134       C  0.56305742  0.91520436  0.57597149     0.13400
C2135       C  0.52610805  0.93370621  0.56173596    -0.24300
H2136       H  0.57570149  0.89346276  0.51968180     0.14700
H2137       H  0.61889038  0.89931326  0.65580430     0.14700
C2138       C  0.66436780  0.85306845  0.61603974    -0.24300
H2139       H  0.51989272  0.92646066  0.53103441     0.04900
H2140       H  0.52867710  0.96588310  0.56365354     0.08100
H2141       H  0.50094586  0.92301162  0.57912511     0.08100
H2142       H  0.69197186  0.86798456  0.60777189     0.08100
H2143       H  0.66379877  0.82245674  0.60613890     0.08100
H2144       H  0.66397931  0.85222264  0.64814632     0.04900
C2145       C  0.38356668  0.89668782  0.54683460    -0.20900
C2146       C  0.37639682  0.85720151  0.55477290    -0.07500
C2147       C  0.38352865  0.84285225  0.59233456     0.13400
C2148       C  0.39756525  0.86837988  0.62105961    -0.21000
C2149       C  0.40508242  0.90807053  0.61330421    -0.07500
C2150       C  0.39795057  0.92232036  0.57531000     0.13400
C2151       C  0.40359006  0.96467737  0.56457600    -0.24300
H2152       H  0.37639992  0.90786329  0.51841681     0.14700
H2153       H  0.40309887  0.85690772  0.64973561     0.14700
C2154       C  0.37640221  0.80080183  0.60307139    -0.24300
H2155       H  0.39337384  0.97079253  0.53471849     0.04900
H2156       H  0.43492416  0.97291332  0.56566717     0.08100
H2157       H  0.38682794  0.98325826  0.58457939     0.08100
H2158       H  0.40380313  0.78821631  0.61419335     0.08100
H2159       H  0.36650977  0.78281320  0.57824381     0.08100
H2160       H  0.35389679  0.79884677  0.62602465     0.04900
C2161       C  0.45345719  0.20889763  0.76632523    -0.20900
C2162       C  0.48477961  0.18562252  0.77698877    -0.07500
C2163       C  0.51216008  0.20049464  0.80404950     0.13400
C2164       C  0.51033415  0.23962096  0.81542121    -0.21000
C2165       C  0.48139265  0.26453319  0.80128470    -0.07500
C2166       C  0.45050789  0.24742795  0.77904430     0.13400
C2167       C  0.41394721  0.26830522  0.76723267    -0.24300
H2168       H  0.43079292  0.19691723  0.74777783     0.14700
H2169       H  0.53160985  0.25008918  0.83598431     0.14700
C2170       C  0.54220328  0.17500515  0.82280628    -0.24300
H2171       H  0.38816397  0.25179056  0.77820500     0.04900
H2172       H  0.41216758  0.26971471  0.73520516     0.08100
H2173       H  0.41176444  0.29821051  0.77843084     0.08100
H2174       H  0.56357735  0.16512891  0.80109906     0.08100
H2175       H  0.52748307  0.14950449  0.83654557     0.08100
H2176       H  0.55881991  0.19064496  0.84572194     0.04900
C2177       C  0.50923267  0.77354748  0.80475127    -0.20900
C2178       C  0.48787288  0.74520168  0.78387263    -0.07500
C2179       C  0.46321786  0.75834486  0.75334035     0.13400
C2180       C  0.46389400  0.79791566  0.74282932    -0.21000
C2181       C  0.48762772  0.82496756  0.76222066    -0.07500
C2182       C  0.51014492  0.81268518  0.79396751     0.13400
C2183       C  0.53421598  0.84091298  0.81788550    -0.24300
H2184       H  0.52470012  0.76614064  0.83069003     0.14700
H2185       H  0.44549788  0.80780300  0.71938586     0.14700
C2186       C  0.43513346  0.73244332  0.73119649    -0.24300
H2187       H  0.54800753  0.82659226  0.84313227     0.04900
H2188       H  0.51548247  0.86435705  0.82905948     0.08100
H2189       H  0.55809164  0.85364775  0.80012778     0.08100
H2190       H  0.43266696  0.70236356  0.74227396     0.08100
H2191       H  0.44411195  0.73132959  0.70039647     0.08100
H2192       H  0.40549475  0.74474889  0.73275202     0.04900
C2193       C  0.33712010  0.10045168  0.91671119    -0.20900
C2194       C  0.35264638  0.13563130  0.93132018    -0.07500
C2195       C  0.38899358  0.14969100  0.91678795     0.13400
C2196       C  0.40832592  0.12813098  0.88849182    -0.21000
C2197       C  0.39302251  0.09276605  0.87484675    -0.07500
C2198       C  0.35676720  0.07888691  0.88866526     0.13400
C2199       C  0.33801632  0.04155376  0.87444157    -0.24300
H2200       H  0.30916676  0.08968900  0.92706540     0.14700
H2201       H  0.43603420  0.13877750  0.87731677     0.14700
C2202       C  0.40965251  0.18606839  0.93093948    -0.24300
H2203       H  0.30918652  0.04791624  0.86156362     0.04900
H2204       H  0.33381533  0.02115689  0.89909882     0.08100
H2205       H  0.35556794  0.02663459  0.85224424     0.08100
H2206       H  0.39540532  0.20010193  0.95567300     0.08100
H2207       H  0.41203796  0.20749335  0.90692990     0.08100
H2208       H  0.43945221  0.17865497  0.94066994     0.04900
C2209       C  0.34964595  0.90769158  0.86785783    -0.20900
C2210       C  0.38839063  0.91885327  0.87620778    -0.07500
C2211       C  0.40234311  0.91347376  0.91464701     0.13400
C2212       C  0.37710735  0.89831351  0.94312152    -0.21000
C2213       C  0.33828476  0.88850295  0.93488703    -0.07500
C2214       C  0.32462000  0.89242531  0.89659257     0.13400
C2215       C  0.28357986  0.88067911  0.88601260    -0.24300
H2216       H  0.33859212  0.91139231  0.83875213     0.14700
H2217       H  0.38814984  0.89288563  0.97192607     0.14700
C2218       C  0.44400034  0.92222193  0.92615691    -0.24300
H2219       H  0.27876058  0.84916453  0.89170879     0.04900
H2220       H  0.27739385  0.88612896  0.85496062     0.08100
H2221       H  0.26276538  0.89764675  0.90337222     0.08100
H2222       H  0.45003098  0.95402618  0.92487683     0.08100
H2223       H  0.46418438  0.90659480  0.90679298     0.08100
H2224       H  0.45018738  0.91281121  0.95626409     0.04900
C2225       C  0.65090712  0.91457297  0.90258971    -0.20900
C2226       C  0.63492398  0.88833907  0.92954965    -0.07500
C2227       C  0.59459813  0.87924337  0.92803079     0.13400
C2228       C  0.57127296  0.89657530  0.89954510    -0.21000
C2229       C  0.58743559  0.92192927  0.87187716    -0.07500
C2230       C  0.62771249  0.93105615  0.87344643     0.13400
C2231       C  0.64588909  0.95922346  0.84512687    -0.24300
H2232       H  0.68171385  0.92173874  0.90402559     0.14700
H2233       H  0.54034244  0.88991896  0.89851509     0.14700
C2234       C  0.57593645  0.85164753  0.95672301    -0.24300
H2235       H  0.67700306  0.96535254  0.85184781     0.04900
H2236       H  0.62997522  0.98694572  0.84622948     0.08100
H2237       H  0.64406914  0.94722353  0.81542021     0.08100
H2238       H  0.58085226  0.86242671  0.98654523     0.08100
H2239       H  0.58852276  0.82227381  0.95385064     0.08100
H2240       H  0.54403175  0.84876306  0.95206683     0.04900
C2241       C  0.56871509  0.10931688  0.90497462    -0.20900
C2242       C  0.58695917  0.08938552  0.87483757    -0.07500
C2243       C  0.62823522  0.08873189  0.87339562     0.13400
C2244       C  0.64993228  0.10873447  0.90162320    -0.21000
C2245       C  0.63161119  0.12957878  0.93085842    -0.07500
C2246       C  0.59057648  0.12950893  0.93299063     0.13400
C2247       C  0.56986180  0.15005414  0.96518930    -0.24300
H2248       H  0.53718958  0.10977206  0.90610329     0.14700
H2249       H  0.68146825  0.10866330  0.90038524     0.14700
C2250       C  0.65070110  0.06696014  0.84317262    -0.24300
H2251       H  0.53774661  0.14675889  0.96267735     0.04900
H2252       H  0.57718308  0.18162743  0.96473063     0.08100
H2253       H  0.57878860  0.13742007  0.99328812     0.08100
H2254       H  0.63201928  0.05063429  0.82260693     0.08100
H2255       H  0.66994260  0.04572136  0.85763985     0.08100
H2256       H  0.66912726  0.08776791  0.82639330     0.04900
loop_ 
_geom_bond_atom_site_label_1 
_geom_bond_atom_site_label_2 
_geom_bond_distance 
_geom_bond_site_symmetry_2 
_ccdc_geom_bond_type 
O1          Zr37   2.454       .  S
O1           C12   1.295       .  A
O2          Zr36   2.452       .  S
O2           C13   1.296       .  A
O3           Zr9   2.447       .  S
O3           C14   1.293       .  A
O4           Zr9   2.445       .  S
O4           C15   1.293       .  A
O5          Zr39   2.432       .  S
O5           C15   1.292       .  A
O6          Zr38   2.427       .  S
O6           C14   1.291   1_565  A
O7           Zr9   2.412       .  S
O7           C13   1.285       .  A
O8           Zr9   2.421       .  S
O8           C12   1.289       .  A
Zr9          O10   2.339       .  S
Zr9          O11   2.334       .  S
Zr9          O19   2.333       .  S
Zr9          O17   2.339       .  S
O10         Zr36   2.340       .  S
O10         Zr39   2.329       .  S
O11         Zr37   2.340       .  S
O11         Zr38   2.335   1_545  S
C12        C2242   1.476       .  S
C13        C2114   1.495       .  S
C14        C2082   1.488       .  S
C15        C2162   1.484       .  S
H16          O17   0.965       .  S
O17         Zr36   2.321       .  S
O17         Zr38   2.342   1_545  S
H18          O19   0.964       .  S
O19         Zr37   2.318       .  S
O19         Zr39   2.341       .  S
O20         Zr36   2.430   1_565  S
O20          C43   1.290       .  A
O21         Zr37   2.426   1_565  S
O21          C44   1.289       .  A
O22         Zr38   2.435       .  S
O22          C45   1.293       .  A
O23         Zr39   2.449       .  S
O23          C46   1.293       .  A
O24         Zr39   2.423       .  S
O24          C47   1.289       .  A
O25         Zr38   2.447       .  S
O25          C48   1.293       .  A
O26         Zr40   2.442       .  S
O26          C49   1.293       .  A
O27         Zr40   2.444       .  S
O27          C50   1.294   1_565  A
O28         Zr38   2.425       .  S
O28          C49   1.290       .  A
O29         Zr39   2.417       .  S
O29          C50   1.287       .  A
O30         Zr36   2.437   1_565  S
O30          C45   1.291       .  A
O31         Zr37   2.447   1_565  S
O31          C48   1.293       .  A
O32         Zr37   2.455       .  S
O32          C47   1.295       .  A
O33         Zr36   2.424       .  S
O33          C46   1.289       .  A
O34         Zr40   2.469       .  S
O34          C43   1.299       .  A
O35         Zr40   2.472       .  S
O35          C44   1.300       .  A
Zr36         O42   2.346   1_545  S
Zr36         O54   2.336       .  S
Zr37         O41   2.348       .  S
Zr37         O52   2.337   1_545  S
Zr38         O42   2.335       .  S
Zr38         O52   2.344       .  S
Zr39         O41   2.337       .  S
Zr39         O54   2.341       .  S
Zr40         O41   2.344   1_565  S
Zr40         O42   2.343       .  S
Zr40         O54   2.353   1_565  S
Zr40         O52   2.353       .  S
C43        C2149   1.497       .  S
C44        C2210   1.500       .  S
C45        C2133   1.492       .  S
C46        C2101   1.467       .  S
C47        C2197   1.468       .  S
C48        C2229   1.483       .  S
C49        C2181   1.472       .  S
C50        C2069   1.489       .  S
H51          O52   0.966       .  S
H53          O54   0.966       .  S
C55          C56   1.536       .  S
C55          C61   1.527       .  S
C55          C59   1.537       .  S
C55        C2018   1.534       .  S
C56          H63   1.086       .  S
C56          C57   1.371       .  D
C57          C58   1.542       .  S
C57        C2117   1.488       .  S
C58          C62   1.562       .  S
C58          C60   1.555       .  S
C58          H64   1.106       .  S
C59          H65   1.081       .  S
C59          C60   1.364       .  D
C60        C2037   1.498       .  S
C61          H66   1.086       .  S
C61          C62   1.356       .  D
C62        C2050   1.506       .  S
O67        Zr103   2.448       .  S
O67          C78   1.293       .  A
O68        Zr102   2.424       .  S
O68          C79   1.291       .  A
O69         Zr75   2.455       .  S
O69          C80   1.296       .  A
O70         Zr75   2.429   1_565  S
O70          C81   1.290       .  A
O71        Zr105   2.451       .  S
O71          C81   1.295       .  A
O72        Zr104   2.410       .  S
O72          C80   1.286       .  A
O73         Zr75   2.439   1_565  S
O73          C79   1.291       .  A
O74         Zr75   2.443       .  S
O74          C78   1.293       .  A
Zr75         O76   2.346   1_545  S
Zr75         O77   2.338       .  S
Zr75         O85   2.335       .  S
Zr75         O83   2.326       .  S
O76        Zr102   2.334       .  S
O76        Zr105   2.331       .  S
O77        Zr103   2.344       .  S
O77        Zr104   2.341       .  S
C78        C2034   1.477       .  S
C79        C1874   1.490       .  S
C80        C1906   1.480       .  S
C81        C1893   1.489       .  S
H82          O83   0.965       .  S
O83        Zr102   2.340   1_545  S
O83        Zr104   2.338       .  S
H84          O85   0.965       .  S
O85        Zr103   2.345       .  S
O85        Zr105   2.349   1_545  S
O86        Zr102   2.430       .  S
O86         C109   1.292       .  A
O87        Zr103   2.449       .  S
O87         C110   1.293       .  A
O88        Zr104   2.460       .  S
O88         C111   1.297       .  A
O89        Zr105   2.436       .  S
O89         C112   1.293       .  A
O90        Zr105   2.427       .  S
O90         C113   1.290   1_565  A
O91        Zr104   2.440       .  S
O91         C114   1.293       .  A
O92        Zr106   2.451       .  S
O92         C115   1.295       .  A
O93        Zr106   2.433   1_565  S
O93         C116   1.289       .  A
O94        Zr104   2.430       .  S
O94         C115   1.290       .  A
O95        Zr105   2.440       .  S
O95         C116   1.294       .  A
O96        Zr102   2.446       .  S
O96         C111   1.293   1_565  A
O97        Zr103   2.433       .  S
O97         C114   1.292       .  A
O98        Zr103   2.446       .  S
O98         C113   1.293       .  A
O99        Zr102   2.444       .  S
O99         C112   1.292       .  A
O100       Zr106   2.427   1_565  S
O100        C109   1.289       .  A
O101       Zr106   2.437       .  S
O101        C110   1.291       .  A
Zr102       O108   2.336   1_565  S
Zr102       O120   2.335       .  S
Zr103       O107   2.338       .  S
Zr103       O118   2.352       .  S
Zr104       O108   2.328       .  S
Zr104       O118   2.348       .  S
Zr105       O107   2.340   1_565  S
Zr105       O120   2.339       .  S
Zr106       O107   2.346       .  S
Zr106       O108   2.342       .  S
Zr106       O120   2.327   1_545  S
Zr106       O118   2.320       .  S
C109       C1989   1.489       .  S
C110       C1954   1.474       .  S
C111       C1842   1.497       .  S
C112       C1941   1.491       .  S
C113       C1861   1.474       .  S
C114       C1922   1.475       .  S
C115       C2002   1.482       .  S
C116       C1970   1.498       .  S
H117        O118   0.965       .  S
H119        O120   0.964       .  S
C121        C122   1.537   1_554  S
C121        C127   1.536       .  S
C121        C125   1.530       .  S
C121       C1813   1.520       .  S
C122        H129   1.083       .  S
C122        C123   1.363       .  D
C123        C124   1.554   1_556  S
C123       C2213   1.489       .  S
C124        C128   1.544       .  S
C124        C126   1.537       .  S
C124        H130   1.110       .  S
C125        H131   1.086       .  S
C125        C126   1.366       .  D
C126       C1986   1.481       .  S
C127        H132   1.087       .  S
C127        C128   1.350       .  D
C128       C1826   1.477       .  S
C133        C134   1.553   1_556  S
C133        C139   1.540       .  S
C133        C137   1.536       .  S
C133       C1778   1.546       .  S
C134        H141   1.078       .  S
C134        C135   1.366       .  D
C135        C136   1.536   1_554  S
C135       C1973   1.488       .  S
C136        C140   1.532       .  S
C136        C138   1.543       .  S
C136        H142   1.111       .  S
C137        H143   1.086       .  S
C137        C138   1.366       .  D
C138       C2226   1.487       .  S
C139        H144   1.087   1_556  S
C139        C140   1.363       .  D
C140       C1794   1.479   1_556  S
C145        C146   1.530       .  S
C145        C151   1.546       .  S
C145        C149   1.546       .  S
C145       C1746   1.542       .  S
C146        H153   1.086       .  S
C146        C147   1.361       .  D
C147        C148   1.541       .  S
C147       C1890   1.481       .  S
C148        C152   1.532       .  S
C148        C150   1.547       .  S
C148        H154   1.109       .  S
C149        H155   1.076       .  S
C149        C150   1.376       .  D
C150       C2130   1.504       .  S
C151        H156   1.085       .  S
C151        C152   1.360       .  D
C152       C1762   1.485       .  S
C157        C158   1.535   1_556  S
C157        C163   1.533       .  S
C157        C161   1.556       .  S
C157       C1717   1.541   1_556  S
C158        H165   1.086       .  S
C158        C159   1.362       .  D
C159        C160   1.538   1_554  S
C159       C2005   1.482       .  S
C160        C164   1.541       .  S
C160        C162   1.540       .  S
C160        H166   1.111       .  S
C161        H167   1.082       .  S
C161        C162   1.371       .  D
C162       C2194   1.492       .  S
C163        H168   1.087       .  S
C163        C164   1.362       .  D
C164       C1730   1.486       .  S
C169        C170   1.532       .  S
C169        C175   1.525       .  S
C169        C173   1.546   1_556  S
C169       C1682   1.530       .  S
C170        H177   1.086       .  S
C170        C171   1.364       .  D
C171        C172   1.539       .  S
C171       C2245   1.476       .  S
C172        C176   1.549       .  S
C172        C174   1.549   1_556  S
C172        H178   1.110       .  S
C173        H179   1.081       .  S
C173        C174   1.369       .  D
C174       C1957   1.498       .  S
C175        H180   1.087       .  S
C175        C176   1.354       .  D
C176       C1701   1.478       .  S
C181        C182   1.544       .  S
C181        C187   1.534       .  S
C181        C185   1.550       .  S
C181       C1653   1.542       .  S
C182        H189   1.086       .  S
C182        C183   1.366       .  D
C183        C184   1.527       .  S
C183       C1909   1.475       .  S
C184        C188   1.539       .  S
C184        C186   1.539       .  S
C184        H190   1.111       .  S
C185        H191   1.082       .  S
C185        C186   1.363       .  D
C186       C2098   1.489       .  S
C187        H192   1.086       .  S
C187        C188   1.363       .  D
C188       C1666   1.480       .  S
C193        C194   1.529       .  S
C193        C199   1.522       .  S
C193        C197   1.549       .  S
C193       C1618   1.531       .  S
C194        H201   1.087       .  S
C194        C195   1.360       .  D
C195        C196   1.549       .  S
C195       C2146   1.483       .  S
C196        C200   1.545       .  S
C196        C198   1.539       .  S
C196        H202   1.110       .  S
C197        H203   1.082       .  S
C197        C198   1.376       .  D
C198       C1877   1.484       .  S
C199        H204   1.088       .  S
C199        C200   1.355       .  D
C200       C1634   1.485       .  S
O205       Zr241   2.457       .  S
O205        C216   1.296       .  A
O206       Zr240   2.432       .  S
O206        C217   1.292   1_455  A
O207       Zr213   2.411       .  S
O207        C218   1.287       .  A
O208       Zr213   2.425       .  S
O208        C219   1.288       .  A
O209       Zr243   2.450       .  S
O209        C219   1.295       .  A
O210       Zr242   2.443       .  S
O210        C218   1.294       .  A
O211       Zr213   2.460       .  S
O211        C217   1.295       .  A
O212       Zr213   2.452       .  S
O212        C216   1.294       .  A
Zr213       O214   2.330       .  S
Zr213       O215   2.348       .  S
Zr213       O223   2.337       .  S
Zr213       O221   2.341       .  S
O214       Zr240   2.342   1_655  S
O214       Zr243   2.344       .  S
O215       Zr241   2.337       .  S
O215       Zr242   2.345       .  S
C216       C1749   1.481       .  S
C217       C1474   1.500       .  S
C218       C1522   1.475       .  S
C219       C1586   1.496       .  S
H220        O221   0.965       .  S
O221       Zr240   2.341   1_655  S
O221       Zr242   2.335       .  S
H222        O223   0.964       .  S
O223       Zr241   2.359       .  S
O223       Zr243   2.331       .  S
O224       Zr240   2.443       .  S
O224        C247   1.294       .  A
O225       Zr241   2.462       .  S
O225        C248   1.298       .  A
O226       Zr242   2.445   1_455  S
O226        C249   1.292       .  A
O227       Zr243   2.458   1_455  S
O227        C250   1.296       .  A
O228       Zr243   2.431       .  S
O228        C251   1.291       .  A
O229       Zr242   2.460       .  S
O229        C252   1.295       .  A
O230       Zr244   2.431       .  S
O230        C253   1.290       .  A
O231       Zr244   2.446       .  S
O231        C254   1.292       .  A
O232       Zr242   2.442   1_455  S
O232        C253   1.293       .  A
O233       Zr243   2.459   1_455  S
O233        C254   1.297       .  A
O234       Zr240   2.445       .  S
O234        C249   1.295       .  A
O235       Zr241   2.472       .  S
O235        C252   1.298       .  A
O236       Zr241   2.428       .  S
O236        C251   1.290       .  A
O237       Zr240   2.424       .  S
O237        C250   1.289       .  A
O238       Zr244   2.428       .  S
O238        C247   1.289       .  A
O239       Zr244   2.406       .  S
O239        C248   1.284   1_455  A
Zr240       O246   2.333       .  S
Zr240       O258   2.345       .  S
Zr241       O245   2.347       .  S
Zr241       O256   2.343       .  S
Zr242       O246   2.353   1_655  S
Zr242       O256   2.336       .  S
Zr243       O245   2.344       .  S
Zr243       O258   2.322   1_655  S
Zr244       O245   2.326   1_455  S
Zr244       O246   2.335       .  S
Zr244       O258   2.333       .  S
Zr244       O256   2.358   1_455  S
C247       C1621   1.480       .  S
C248       C1458   1.493       .  S
C249       C1506   1.504       .  S
C250       C1602   1.473       .  S
C251       C1570   1.461       .  S
C252       C1541   1.497       .  S
C253       C1490   1.470       .  S
C254       C1554   1.506       .  S
H255        O256   0.966       .  S
H257        O258   0.965       .  S
O259       Zr295   2.432       .  S
O259        C270   1.291       .  A
O260       Zr294   2.450       .  S
O260        C271   1.295   1_455  A
O261       Zr267   2.448       .  S
O261        C272   1.293       .  A
O262       Zr267   2.440       .  S
O262        C273   1.292       .  A
O263       Zr297   2.426       .  S
O263        C273   1.289       .  A
O264       Zr296   2.471       .  S
O264        C272   1.298       .  A
O265       Zr267   2.415       .  S
O265        C271   1.285       .  A
O266       Zr267   2.405       .  S
O266        C270   1.285       .  A
Zr267       O268   2.335       .  S
Zr267       O269   2.339       .  S
Zr267       O277   2.338       .  S
Zr267       O275   2.322       .  S
O268       Zr294   2.339   1_655  S
O268       Zr297   2.336       .  S
O269       Zr295   2.338       .  S
O269       Zr296   2.330       .  S
C270       C2021   1.462       .  S
C271       C1314   1.497       .  S
C272       C1410   1.487       .  S
C273       C1349   1.462       .  S
H274        O275   0.965       .  S
O275       Zr294   2.336   1_655  S
O275       Zr296   2.349       .  S
H276        O277   0.966       .  S
O277       Zr295   2.339       .  S
O277       Zr297   2.349       .  S
O278       Zr294   2.432       .  S
O278        C301   1.291       .  A
O279       Zr295   2.431       .  S
O279        C302   1.290       .  A
O280       Zr296   2.419   1_455  S
O280        C303   1.287       .  A
O281       Zr297   2.455   1_455  S
O281        C304   1.295       .  A
O282       Zr297   2.453       .  S
O282        C305   1.294       .  A
O283       Zr296   2.444       .  S
O283        C306   1.292       .  A
O284       Zr298   2.427       .  S
O284        C307   1.290       .  A
O285       Zr298   2.428       .  S
O285        C308   1.290       .  A
O286       Zr296   2.453   1_455  S
O286        C307   1.295       .  A
O287       Zr297   2.420   1_455  S
O287        C308   1.287       .  A
O288       Zr294   2.452       .  S
O288        C303   1.297       .  A
O289       Zr295   2.442       .  S
O289        C306   1.294       .  A
O290       Zr295   2.432       .  S
O290        C305   1.293       .  A
O291       Zr294   2.446       .  S
O291        C304   1.294       .  A
O292       Zr298   2.443       .  S
O292        C301   1.293       .  A
O293       Zr298   2.441       .  S
O293        C302   1.293   1_455  A
Zr294       O300   2.341       .  S
Zr294       O312   2.343       .  S
Zr295       O299   2.332       .  S
Zr295       O310   2.336       .  S
Zr296       O300   2.339   1_655  S
Zr296       O310   2.351       .  S
Zr297       O299   2.331       .  S
Zr297       O312   2.353   1_655  S
Zr298       O299   2.328   1_455  S
Zr298       O300   2.339       .  S
Zr298       O312   2.337       .  S
Zr298       O310   2.338   1_455  S
C301       C1650   1.484       .  S
C302       C1298   1.484       .  S
C303       C1397   1.495       .  S
C304       C1362   1.485       .  S
C305       C1330   1.502       .  S
C306       C1426   1.500       .  S
C307       C1445   1.472       .  S
C308       C1378   1.454       .  S
H309        O310   0.965       .  S
H311        O312   0.965       .  S
C313        C314   1.535       .  S
C313        C319   1.544       .  S
C313        C317   1.540       .  S
C313       C1266   1.535       .  S
C314        H321   1.086       .  S
C314        C315   1.369       .  D
C315        C316   1.543       .  S
C315       C1346   1.493       .  S
C316        C320   1.536       .  S
C316        C318   1.528       .  S
C316        H322   1.110       .  S
C317        H323   1.086       .  S
C317        C318   1.362       .  D
C318       C1525   1.463       .  S
C319        H324   1.083       .  S
C319        C320   1.359       .  D
C320       C1282   1.476       .  S
C325        C326   1.546       .  S
C325        C331   1.526       .  S
C325        C329   1.547       .  S
C325       C1234   1.548       .  S
C326        H333   1.083       .  S
C326        C327   1.373       .  D
C327        C328   1.539       .  S
C327       C1509   1.493       .  S
C328        C332   1.552       .  S
C328        C330   1.551       .  S
C328        H334   1.108       .  S
C329        H335   1.083       .  S
C329        C330   1.365       .  D
C330       C1365   1.497       .  S
C331        H336   1.087       .  S
C331        C332   1.358       .  D
C332       C1253   1.499       .  S
C337        C338   1.546   1_545  S
C337        C343   1.536       .  S
C337        C341   1.535       .  S
C337       C1858   1.538       .  S
C338        H345   1.082       .  S
C338        C339   1.358       .  D
C339        C340   1.531   1_565  S
C339       C1573   1.469       .  S
C340        C344   1.538       .  S
C340        C342   1.542       .  S
C340        H346   1.111       .  S
C341        H347   1.085       .  S
C341        C342   1.365       .  D
C342       C1429   1.487       .  S
C343        H348   1.085       .  S
C343        C344   1.367       .  D
C344       C1221   1.484   1_545  S
C349        C350   1.550       .  S
C349        C355   1.522   1_545  S
C349        C353   1.541   1_545  S
C349       C2085   1.538       .  S
C350        H357   1.079       .  S
C350        C351   1.368       .  D
C351        C352   1.551       .  S
C351       C1413   1.509       .  S
C352        C356   1.556   1_545  S
C352        C354   1.540   1_545  S
C352        H358   1.107       .  S
C353        H359   1.086       .  S
C353        C354   1.372       .  D
C354       C1589   1.492       .  S
C355        H360   1.087       .  S
C355        C356   1.352       .  D
C356       C1202   1.486       .  S
C361        C362   1.531       .  S
C361        C367   1.518       .  S
C361        C365   1.562       .  S
C361       C1170   1.535       .  S
C362        H369   1.085       .  S
C362        C363   1.365       .  D
C363        C364   1.556       .  S
C363       C1538   1.509       .  S
C364        C368   1.563       .  S
C364        C366   1.527       .  S
C364        H370   1.110       .  S
C365        H371   1.081       .  S
C365        C366   1.370       .  D
C366       C1333   1.481       .  S
C367        H372   1.086       .  S
C367        C368   1.353       .  D
C368       C1186   1.497       .  S
C373        C374   1.561       .  S
C373        C379   1.529       .  S
C373        C377   1.535       .  S
C373       C1138   1.545       .  S
C374        H381   1.079       .  S
C374        C375   1.373       .  D
C375        C376   1.530       .  S
C375       C1381   1.490       .  S
C376        C380   1.537       .  S
C376        C378   1.536       .  S
C376        H382   1.106       .  S
C377        H383   1.086       .  S
C377        C378   1.362       .  D
C378       C1493   1.481       .  S
C379        H384   1.086       .  S
C379        C380   1.360       .  D
C380       C1154   1.479       .  S
C385        C386   1.540       .  S
C385        C391   1.530       .  S
C385        C389   1.553   1_545  S
C385       C1845   1.547       .  S
C386        H393   1.086       .  S
C386        C387   1.365       .  D
C387        C388   1.541       .  S
C387       C1442   1.488       .  S
C388        C392   1.550       .  S
C388        C390   1.549   1_545  S
C388        H394   1.106       .  S
C389        H395   1.082       .  S
C389        C390   1.372       .  D
C390       C1557   1.502       .  S
C391        H396   1.087       .  S
C391        C392   1.360       .  D
C392       C1125   1.498       .  S
C397        C398   1.536   1_545  S
C397        C403   1.529       .  S
C397        C401   1.550       .  S
C397       C2066   1.536       .  S
C398        H405   1.086       .  S
C398        C399   1.366       .  D
C399        C400   1.547   1_565  S
C399       C1605   1.485       .  S
C400        C404   1.539       .  S
C400        C402   1.532       .  S
C400        H406   1.109       .  S
C401        H407   1.083       .  S
C401        C402   1.360       .  D
C402       C1394   1.479       .  S
C403        H408   1.087       .  S
C403        C404   1.364       .  D
C404       C1109   1.486       .  S
O409       Zr445   2.438       .  S
O409        C420   1.292       .  A
O410       Zr444   2.425       .  S
O410        C421   1.289       .  A
O411       Zr417   2.436       .  S
O411        C422   1.291       .  A
O412       Zr417   2.428       .  S
O412        C423   1.292       .  A
O413       Zr447   2.442   1_554  S
O413        C423   1.292       .  A
O414       Zr446   2.450   1_554  S
O414        C422   1.294       .  A
O415       Zr417   2.435       .  S
O415        C421   1.292       .  A
O416       Zr417   2.442       .  S
O416        C420   1.293   1_554  A
Zr417       O418   2.335       .  S
Zr417       O419   2.331   1_554  S
Zr417       O427   2.338   1_554  S
Zr417       O425   2.333       .  S
O418       Zr444   2.334       .  S
O418       Zr447   2.333   1_554  S
O419       Zr445   2.346       .  S
O419       Zr446   2.340       .  S
C420       C1781   1.487       .  S
C421       C1173   1.479       .  S
C422        C994   1.477       .  S
C423       C1090   1.491       .  S
H424        O425   0.965       .  S
O425       Zr444   2.334       .  S
O425       Zr446   2.346   1_554  S
H426        O427   0.965       .  S
O427       Zr445   2.335       .  S
O427       Zr447   2.350       .  S
O428       Zr444   2.435       .  S
O428        C451   1.291   1_554  A
O429       Zr445   2.446       .  S
O429        C452   1.293       .  A
O430       Zr446   2.465   1_554  S
O430        C453   1.298       .  A
O431       Zr447   2.437   1_554  S
O431        C454   1.290       .  A
O432       Zr447   2.452       .  S
O432        C455   1.294       .  A
O433       Zr446   2.429       .  S
O433        C456   1.293       .  A
O434       Zr448   2.464       .  S
O434        C457   1.296       .  A
O435       Zr448   2.459       .  S
O435        C458   1.296       .  A
O436       Zr446   2.458       .  S
O436        C457   1.295       .  A
O437       Zr447   2.439       .  S
O437        C458   1.292       .  A
O438       Zr444   2.426       .  S
O438        C453   1.289       .  A
O439       Zr445   2.431       .  S
O439        C456   1.290       .  A
O440       Zr445   2.459       .  S
O440        C455   1.296       .  A
O441       Zr444   2.436       .  S
O441        C454   1.293       .  A
O442       Zr448   2.413       .  S
O442        C451   1.288       .  A
O443       Zr448   2.418       .  S
O443        C452   1.288       .  A
Zr444       O450   2.333   1_554  S
Zr444       O462   2.328   1_554  S
Zr445       O449   2.337       .  S
Zr445       O460   2.349       .  S
Zr446       O450   2.330       .  S
Zr446       O460   2.360       .  S
Zr447       O449   2.338       .  S
Zr447       O462   2.354       .  S
Zr448       O449   2.346       .  S
Zr448       O450   2.338       .  S
Zr448       O462   2.338       .  S
Zr448       O460   2.334       .  S
C451       C1685   1.474       .  S
C452       C1269   1.464       .  S
C453        C978   1.490       .  S
C454       C1042   1.498       .  S
C455       C1074   1.487       .  S
C456       C1010   1.489       .  S
C457       C1026   1.489       .  S
C458       C1058   1.476       .  S
H459        O460   0.965       .  S
H461        O462   0.965       .  S
O463       Zr499   2.423       .  S
O463        C474   1.290   1_556  A
O464       Zr498   2.439       .  S
O464        C475   1.292       .  A
O465       Zr471   2.460       .  S
O465        C476   1.297       .  A
O466       Zr471   2.476       .  S
O466        C477   1.300       .  A
O467       Zr501   2.455       .  S
O467        C477   1.294       .  A
O468       Zr500   2.420       .  S
O468        C476   1.288       .  A
O469       Zr471   2.450       .  S
O469        C475   1.295       .  A
O470       Zr471   2.416       .  S
O470        C474   1.288       .  A
Zr471       O472   2.328       .  S
Zr471       O473   2.346       .  S
Zr471       O481   2.357       .  S
Zr471       O479   2.350       .  S
O472       Zr498   2.343       .  S
O472       Zr501   2.349       .  S
O473       Zr499   2.339   1_554  S
O473       Zr500   2.339       .  S
C474       C1810   1.460       .  S
C475       C1141   1.493       .  S
C476        C882   1.492       .  S
C477        C946   1.521       .  S
H478        O479   0.965       .  S
O479       Zr498   2.344       .  S
O479       Zr500   2.338       .  S
H480        O481   0.965       .  S
O481       Zr499   2.359   1_554  S
O481       Zr501   2.332       .  S
O482       Zr498   2.446       .  S
O482        C505   1.294       .  A
O483       Zr499   2.456       .  S
O483        C506   1.296       .  A
O484       Zr500   2.456       .  S
O484        C507   1.295       .  A
O485       Zr501   2.436       .  S
O485        C508   1.292       .  A
O486       Zr501   2.448   1_556  S
O486        C509   1.293       .  A
O487       Zr500   2.458   1_556  S
O487        C510   1.294       .  A
O488       Zr502   2.417       .  S
O488        C511   1.289       .  A
O489       Zr502   2.422       .  S
O489        C512   1.287       .  A
O490       Zr500   2.425   1_556  S
O490        C511   1.288       .  A
O491       Zr501   2.453   1_556  S
O491        C512   1.296       .  A
O492       Zr498   2.458       .  S
O492        C507   1.295       .  A
O493       Zr499   2.440       .  S
O493        C510   1.293       .  A
O494       Zr499   2.432       .  S
O494        C509   1.290       .  A
O495       Zr498   2.425       .  S
O495        C508   1.290       .  A
O496       Zr502   2.445       .  S
O496        C505   1.293   1_556  A
O497       Zr502   2.433       .  S
O497        C506   1.289       .  A
Zr498       O504   2.337       .  S
Zr498       O516   2.349       .  S
Zr499       O503   2.333       .  S
Zr499       O514   2.328       .  S
Zr500       O504   2.352       .  S
Zr500       O514   2.323   1_554  S
Zr501       O503   2.341   1_554  S
Zr501       O516   2.329       .  S
Zr502       O503   2.331       .  S
Zr502       O504   2.342   1_556  S
Zr502       O516   2.331   1_556  S
Zr502       O514   2.337       .  S
C505       C1714   1.485       .  S
C506       C1237   1.502       .  S
C507        C866   1.486       .  S
C508        C962   1.460       .  S
C509        C933   1.471       .  S
C510        C898   1.508       .  S
C511        C853   1.452       .  S
C512        C917   1.498       .  S
H513        O514   0.964       .  S
H515        O516   0.964       .  S
C517        C518   1.548   1_655  S
C517        C523   1.524   1_655  S
C517        C521   1.551       .  S
C517       C1477   1.549       .  S
C518        H525   1.083       .  S
C518        C519   1.375       .  D
C519        C520   1.540       .  S
C519        C901   1.498       .  S
C520        C524   1.555       .  S
C520        C522   1.551   1_455  S
C520        H526   1.108       .  S
C521        H527   1.081       .  S
C521        C522   1.368       .  D
C522       C1077   1.504       .  S
C523        H528   1.088       .  S
C523        C524   1.354       .  D
C524        C837   1.498       .  S
C529        C530   1.545       .  S
C529        C535   1.526   1_655  S
C529        C533   1.548   1_655  S
C529       C1317   1.539       .  S
C530        H537   1.085       .  S
C530        C531   1.364       .  D
C531        C532   1.539       .  S
C531       C1061   1.488       .  S
C532        C536   1.541   1_655  S
C532        C534   1.534   1_655  S
C532        H538   1.108       .  S
C533        H539   1.085       .  S
C533        C534   1.371       .  D
C534        C850   1.483       .  S
C535        H540   1.087       .  S
C535        C536   1.360       .  D
C536        C818   1.486       .  S
C541        C542   1.530       .  S
C541        C547   1.526       .  S
C541        C545   1.554       .  S
C541       C2178   1.536       .  S
C542        H549   1.083       .  S
C542        C543   1.366       .  D
C543        C544   1.547       .  S
C543        C930   1.496       .  S
C544        C548   1.544       .  S
C544        C546   1.528       .  S
C544        H550   1.110       .  S
C545        H551   1.081       .  S
C545        C546   1.362       .  D
C546       C1013   1.476       .  S
C547        H552   1.087       .  S
C547        C548   1.362       .  D
C548        C802   1.477       .  S
C553        C554   1.535       .  S
C553        C559   1.529       .  S
C553        C557   1.556       .  S
C553       C1938   1.538       .  S
C554        H561   1.086       .  S
C554        C555   1.364       .  D
C555        C556   1.538       .  S
C555        C997   1.477       .  S
C556        C560   1.549       .  S
C556        C558   1.548       .  S
C556        H562   1.111       .  S
C557        H563   1.081       .  S
C557        C558   1.373       .  D
C558        C949   1.508       .  S
C559        H564   1.087       .  S
C559        C560   1.354       .  D
C560        C786   1.485       .  S
C565        C566   1.537   1_655  S
C565        C571   1.522       .  S
C565        C569   1.550       .  S
C565       C1301   1.540       .  S
C566        H573   1.086       .  S
C566        C567   1.370       .  D
C567        C568   1.551   1_455  S
C567        C869   1.501       .  S
C568        C572   1.546       .  S
C568        C570   1.536       .  S
C568        H574   1.111       .  S
C569        H575   1.080       .  S
C569        C570   1.371       .  D
C570       C1045   1.479       .  S
C571        H576   1.088       .  S
C571        C572   1.354       .  D
C572        C770   1.481       .  S
C577        C578   1.542       .  S
C577        C583   1.536       .  S
C577        C581   1.545   1_655  S
C577       C1461   1.542       .  S
C578        H585   1.079       .  S
C578        C579   1.372       .  D
C579        C580   1.543       .  S
C579       C1093   1.500       .  S
C580        C584   1.528       .  S
C580        C582   1.540   1_655  S
C580        H586   1.109       .  S
C581        H587   1.082       .  S
C581        C582   1.360       .  D
C582        C885   1.481       .  S
C583        H588   1.086       .  S
C583        C584   1.362       .  D
C584        C757   1.476       .  S
C589        C590   1.550       .  S
C589        C595   1.517       .  S
C589        C593   1.537       .  S
C589       C2165   1.539       .  S
C590        H597   1.076       .  S
C590        C591   1.372       .  D
C591        C592   1.557       .  S
C591       C1029   1.517       .  S
C592        C596   1.560       .  S
C592        C594   1.541       .  S
C592        H598   1.109       .  S
C593        H599   1.086       .  S
C593        C594   1.367       .  D
C594        C914   1.484       .  S
C595        H600   1.088       .  S
C595        C596   1.355       .  D
C596        C738   1.495       .  S
C601        C602   1.550       .  S
C601        C607   1.535       .  S
C601        C605   1.535       .  S
C601       C1925   1.537       .  S
C602        H609   1.082       .  S
C602        C603   1.363       .  D
C603        C604   1.538       .  S
C603        C965   1.482       .  S
C604        C608   1.546       .  S
C604        C606   1.544       .  S
C604        H610   1.110       .  S
C605        H611   1.086       .  S
C605        C606   1.363       .  D
C606        C981   1.487       .  S
C607        H612   1.087       .  S
C607        C608   1.363       .  D
C608        C725   1.487       .  S
O613       Zr649   2.501       .  S
O613        C624   1.302       .  A
O614       Zr648   2.475       .  S
O614        C625   1.298       .  A
O615       Zr621   2.482       .  S
O615        C626   1.299       .  A
O616       Zr621   2.508       .  S
O616        C627   1.305       .  A
O617       Zr651   2.401       .  S
O617        C627   1.285       .  A
O618       Zr650   2.406       .  S
O618        C626   1.288       .  A
O619       Zr621   2.394       .  S
O619        C625   1.283       .  A
O620       Zr621   2.372       .  S
O620        C624   1.279       .  A
Zr621       O622   2.336       .  S
Zr621       O623   2.343       .  S
Zr621       O631   2.335       .  S
Zr621       O629   2.355       .  S
O622       Zr648   2.337       .  S
O622       Zr651   2.335       .  S
O623       Zr649   2.322       .  S
O623       Zr650   2.331       .  S
C624       C2053   1.476       .  S
C625        C722   1.473       .  S
C626       C1669   1.488       .  S
C627       C1189   1.495       .  S
H628        O629   0.966       .  S
O629       Zr648   2.351       .  S
O629       Zr650   2.356       .  S
H630        O631   0.965       .  S
O631       Zr649   2.327       .  S
O631       Zr651   2.354       .  S
O632       Zr648   2.491       .  S
O632        C655   1.300       .  A
O633       Zr649   2.447       .  S
O633        C656   1.292       .  A
O634       Zr650   2.466       .  S
O634        C657   1.296       .  A
O635       Zr651   2.528       .  S
O635        C658   1.309       .  A
O636       Zr651   2.490       .  S
O636        C659   1.300       .  A
O637       Zr650   2.501       .  S
O637        C660   1.302       .  A
O638       Zr652   2.503       .  S
O638        C661   1.303       .  A
O639       Zr652   2.465       .  S
O639        C662   1.296       .  A
O640       Zr650   2.386       .  S
O640        C661   1.284       .  A
O641       Zr651   2.421       .  S
O641        C662   1.290       .  A
O642       Zr648   2.392       .  S
O642        C657   1.284       .  A
O643       Zr649   2.382       .  S
O643        C660   1.282       .  A
O644       Zr649   2.378       .  S
O644        C659   1.283       .  A
O645       Zr648   2.379       .  S
O645        C658   1.278       .  A
O646       Zr652   2.384       .  S
O646        C655   1.283       .  A
O647       Zr652   2.417       .  S
O647        C656   1.289       .  A
Zr648       O654   2.329       .  S
Zr648       O666   2.333       .  S
Zr649       O653   2.346       .  S
Zr649       O664   2.335       .  S
Zr650       O654   2.340       .  S
Zr650       O664   2.326       .  S
Zr651       O653   2.355       .  S
Zr651       O666   2.333       .  S
Zr652       O653   2.344       .  S
Zr652       O654   2.330       .  S
Zr652       O666   2.353       .  S
Zr652       O664   2.333       .  S
C655       C1637   1.476       .  S
C656        C805   1.462       .  S
C657       C1157   1.463       .  S
C658        C789   1.509       .  S
C659       C1285   1.486       .  S
C660        C741   1.485       .  S
C661       C1250   1.497       .  S
C662       C1765   1.471       .  S
H663        O664   0.965       .  S
H665        O666   0.965       .  S
O667       Zr703   2.523       .  S
O667        C678   1.307       .  A
O668       Zr702   2.465   1_455  S
O668        C679   1.295       .  A
O669       Zr675   2.496       .  S
O669        C680   1.301       .  A
O670       Zr675   2.473   1_545  S
O670        C681   1.297       .  A
O671       Zr705   2.417       .  S
O671        C681   1.288   1_554  A
O672       Zr704   2.375       .  S
O672        C680   1.283   1_655  A
O673       Zr675   2.393   1_545  S
O673        C679   1.285       .  A
O674       Zr675   2.362       .  S
O674        C678   1.272   1_556  A
Zr675       O676   2.343   1_565  S
Zr675       O677   2.320       .  S
Zr675       O685   2.342   1_566  S
Zr675       O683   2.327   1_455  S
O676       Zr702   2.348   1_455  S
O676       Zr705   2.345   1_556  S
O677       Zr703   2.327   1_556  S
O677       Zr704   2.344   1_455  S
C678       C1829   1.505       .  S
C679       C1106   1.462       .  S
C680        C834   1.489       .  S
C681       C1733   1.475       .  S
H682        O683   0.964       .  S
O683       Zr702   2.341   1_565  S
O683       Zr704   2.324       .  S
H684        O685   0.964       .  S
O685       Zr703   2.327   1_545  S
O685       Zr705   2.329       .  S
O686       Zr702   2.493       .  S
O686        C709   1.301       .  A
O687       Zr703   2.458   1_655  S
O687        C710   1.295       .  A
O688       Zr704   2.523       .  S
O688        C711   1.307       .  A
O689       Zr705   2.454   1_556  S
O689        C712   1.294       .  A
O690       Zr705   2.487       .  S
O690        C713   1.300       .  A
O691       Zr704   2.471   1_554  S
O691        C714   1.298       .  A
O692       Zr706   2.466       .  S
O692        C715   1.297   1_545  A
O693       Zr706   2.504       .  S
O693        C716   1.302       .  A
O694       Zr704   2.402       .  S
O694        C715   1.286   1_556  A
O695       Zr705   2.373       .  S
O695        C716   1.282   1_455  A
O696       Zr702   2.389       .  S
O696        C711   1.279   1_545  A
O697       Zr703   2.402   1_655  S
O697        C714   1.286       .  A
O698       Zr703   2.403       .  S
O698        C713   1.287   1_565  A
O699       Zr702   2.407       .  S
O699        C712   1.287   1_655  A
O700       Zr706   2.376       .  S
O700        C709   1.282   1_554  A
O701       Zr706   2.416       .  S
O701        C710   1.289   1_545  A
Zr702       O708   2.325       .  S
Zr702       O720   2.325   1_556  S
Zr703       O707   2.340   1_465  S
Zr703       O718   2.370   1_455  S
Zr704       O708   2.322   1_565  S
Zr704       O718   2.363   1_556  S
Zr705       O707   2.325   1_455  S
Zr705       O720   2.345   1_455  S
Zr706       O707   2.329       .  S
Zr706       O708   2.340   1_554  S
Zr706       O720   2.333       .  S
Zr706       O718   2.353   1_545  S
C709       C1698   1.489       .  S
C710       C1218   1.467       .  S
C711       C1205   1.512       .  S
C712        C821   1.460       .  S
C713       C1122   1.494       .  S
C714        C754   1.469       .  S
C715       C1797   1.470       .  S
C716        C773   1.487       .  S
H717        O718   0.966       .  S
H719        O720   0.965       .  S
C721        C722   1.406       .  A
C721        C726   1.405       .  A
C721        H728   1.085       .  S
C722        C723   1.408       .  A
C723        C730   1.506       .  S
C723        C724   1.402       .  A
C724        C725   1.408       .  A
C724        H729   1.084       .  S
C725        C726   1.413       .  A
C726        C727   1.505       .  S
C727        H731   1.111       .  S
C727        H732   1.110       .  S
C727        H733   1.103       .  S
C730        H734   1.109       .  S
C730        H735   1.110       .  S
C730        H736   1.111       .  S
C737        C738   1.403       .  A
C737        C742   1.395       .  A
C737        H744   1.085       .  S
C738        C739   1.420       .  A
C739        C746   1.503       .  S
C739        C740   1.416       .  A
C740        C741   1.406       .  A
C740        H745   1.084       .  S
C741        C742   1.416       .  A
C742        C743   1.509       .  S
C743        H747   1.111       .  S
C743        H748   1.110       .  S
C743        H749   1.107       .  S
C746        H750   1.111       .  S
C746        H751   1.103       .  S
C746        H752   1.110       .  S
C753        C754   1.401       .  A
C753        C758   1.406       .  A
C753        H760   1.084       .  S
C754        C755   1.417   1_655  A
C755        C762   1.509       .  S
C755        C756   1.400       .  A
C756        C757   1.396   1_455  A
C756        H761   1.084       .  S
C757        C758   1.413       .  A
C758        C759   1.505       .  S
C759        H763   1.111       .  S
C759        H764   1.107       .  S
C759        H765   1.111       .  S
C762        H766   1.109       .  S
C762        H767   1.106   1_554  S
C762        H768   1.111       .  S
C769        C770   1.409       .  A
C769        C774   1.417       .  A
C769        H776   1.083       .  S
C770        C771   1.410   1_655  A
C771        C778   1.508       .  S
C771        C772   1.390       .  A
C772        C773   1.405   1_455  A
C772        H777   1.086       .  S
C773        C774   1.416       .  A
C774        C775   1.503       .  S
C775        H779   1.111       .  S
C775        H780   1.110       .  S
C775        H781   1.109       .  S
C778        H782   1.110       .  S
C778        H783   1.106       .  S
C778        H784   1.111       .  S
C785        C786   1.384       .  A
C785        C790   1.397       .  A
C785        H792   1.085       .  S
C786        C787   1.420       .  A
C787        C794   1.505       .  S
C787        C788   1.413       .  A
C788        C789   1.406       .  A
C788        H793   1.084       .  S
C789        C790   1.439       .  A
C790        C791   1.506       .  S
C791        H795   1.111       .  S
C791        H796   1.109       .  S
C791        H797   1.097       .  S
C794        H798   1.110       .  S
C794        H799   1.108       .  S
C794        H800   1.111       .  S
C801        C802   1.399       .  A
C801        C806   1.402       .  A
C801        H808   1.084       .  S
C802        C803   1.418       .  A
C803        C810   1.508       .  S
C803        C804   1.401       .  A
C804        C805   1.396       .  A
C804        H809   1.084       .  S
C805        C806   1.411       .  A
C806        C807   1.506       .  S
C807        H811   1.111       .  S
C807        H812   1.109       .  S
C807        H813   1.109       .  S
C810        H814   1.108       .  S
C810        H815   1.107       .  S
C810        H816   1.111       .  S
C817        C818   1.403   1_655  A
C817        C822   1.405       .  A
C817        H824   1.084       .  S
C818        C819   1.424       .  A
C819        C826   1.508       .  S
C819        C820   1.395       .  A
C820        C821   1.393       .  A
C820        H825   1.086       .  S
C821        C822   1.411   1_455  A
C822        C823   1.506       .  S
C823        H827   1.111       .  S
C823        H828   1.110   1_556  S
C823        H829   1.110       .  S
C826        H830   1.102       .  S
C826        H831   1.110       .  S
C826        H832   1.111       .  S
C833        C834   1.408   1_655  A
C833        C838   1.394       .  A
C833        H840   1.084       .  S
C834        C835   1.408       .  A
C835        C842   1.505       .  S
C835        C836   1.415       .  A
C836        C837   1.419       .  A
C836        H841   1.084       .  S
C837        C838   1.406   1_455  A
C838        C839   1.499       .  S
C839        H843   1.106       .  S
C839        H844   1.108       .  S
C839        H845   1.111       .  S
C842        H846   1.110       .  S
C842        H847   1.111       .  S
C842        H848   1.111       .  S
C849        C850   1.408       .  A
C849        C854   1.404       .  A
C849        H856   1.083       .  S
C850        C851   1.420       .  A
C851        C858   1.503       .  S
C851        C852   1.392       .  A
C852        C853   1.389       .  A
C852        H857   1.086       .  S
C853        C854   1.407       .  A
C854        C855   1.507       .  S
C855        H859   1.111       .  S
C855        H860   1.109       .  S
C855        H861   1.110       .  S
C858        H862   1.101       .  S
C858        H863   1.104       .  S
C858        H864   1.111       .  S
C865        C866   1.405       .  A
C865        C870   1.411       .  A
C865        H872   1.085       .  S
C866        C867   1.414       .  A
C867        C874   1.506       .  S
C867        C868   1.406       .  A
C868        C869   1.409       .  A
C868        H873   1.085       .  S
C869        C870   1.418       .  A
C870        C871   1.506       .  S
C871        H875   1.110       .  S
C871        H876   1.111       .  S
C871        H877   1.103       .  S
C874        H878   1.110       .  S
C874        H879   1.108       .  S
C874        H880   1.111       .  S
C881        C882   1.407       .  A
C881        C886   1.406       .  A
C881        H888   1.078       .  S
C882        C883   1.422       .  A
C883        C890   1.508       .  S
C883        C884   1.401       .  A
C884        C885   1.397       .  A
C884        H889   1.079       .  S
C885        C886   1.410       .  A
C886        C887   1.507       .  S
C887        H891   1.109       .  S
C887        H892   1.109       .  S
C887        H893   1.110       .  S
C890        H894   1.107       .  S
C890        H895   1.109       .  S
C890        H896   1.111       .  S
C897        C898   1.413       .  A
C897        C902   1.406       .  A
C897        H904   1.083       .  S
C898        C899   1.424       .  A
C899        C906   1.509       .  S
C899        C900   1.410       .  A
C900        C901   1.405       .  A
C900        H905   1.083       .  S
C901        C902   1.412       .  A
C902        C903   1.507       .  S
C903        H907   1.111       .  S
C903        H908   1.111       .  S
C903        H909   1.106       .  S
C906        H910   1.111       .  S
C906        H911   1.110       .  S
C906        H912   1.111       .  S
C913        C914   1.398       .  A
C913        C918   1.405       .  A
C913        H920   1.085       .  S
C914        C915   1.411       .  A
C915        C922   1.502       .  S
C915        C916   1.402       .  A
C916        C917   1.407       .  A
C916        H921   1.083       .  S
C917        C918   1.427       .  A
C918        C919   1.510       .  S
C919        H923   1.111       .  S
C919        H924   1.111       .  S
C919        H925   1.107       .  S
C922        H926   1.111       .  S
C922        H927   1.106       .  S
C922        H928   1.107       .  S
C929        C930   1.407       .  A
C929        C934   1.408       .  A
C929        H936   1.084       .  S
C930        C931   1.426       .  A
C931        C938   1.511       .  S
C931        C932   1.402       .  A
C932        C933   1.395       .  A
C932        H937   1.085       .  S
C933        C934   1.411       .  A
C934        C935   1.507       .  S
C935        H939   1.111       .  S
C935        H940   1.111       .  S
C935        H941   1.109       .  S
C938        H942   1.108       .  S
C938        H943   1.109       .  S
C938        H944   1.110       .  S
C945        C946   1.412       .  A
C945        C950   1.411       .  A
C945        H952   1.084       .  S
C946        C947   1.430       .  A
C947        C954   1.509       .  S
C947        C948   1.416       .  A
C948        C949   1.404       .  A
C948        H953   1.084       .  S
C949        C950   1.416       .  A
C950        C951   1.507       .  S
C951        H955   1.111       .  S
C951        H956   1.110       .  S
C951        H957   1.108       .  S
C954        H958   1.110       .  S
C954        H959   1.110       .  S
C954        H960   1.111       .  S
C961        C962   1.398       .  A
C961        C966   1.400       .  A
C961        H968   1.085       .  S
C962        C963   1.407       .  A
C963        C970   1.507       .  S
C963        C964   1.401       .  A
C964        C965   1.407       .  A
C964        H969   1.083       .  S
C965        C966   1.414       .  A
C966        C967   1.503       .  S
C967        H971   1.111       .  S
C967        H972   1.106       .  S
C967        H973   1.107       .  S
C970        H974   1.110       .  S
C970        H975   1.111       .  S
C970        H976   1.111       .  S
C977        C978   1.403       .  A
C977        C982   1.405       .  A
C977        H984   1.084       .  S
C978        C979   1.423       .  A
C979        C986   1.510       .  S
C979        C980   1.406       .  A
C980        C981   1.399       .  A
C980        H985   1.084       .  S
C981        C982   1.413       .  A
C982        C983   1.501       .  S
C983        H987   1.111       .  S
C983        H988   1.107       .  S
C983        H989   1.110       .  S
C986        H990   1.110       .  S
C986        H991   1.109       .  S
C986        H992   1.111       .  S
C993        C994   1.403       .  A
C993        C998   1.404       .  A
C993       H1000   1.084       .  S
C994        C995   1.415       .  A
C995       C1002   1.507       .  S
C995        C996   1.403       .  A
C996        C997   1.400       .  A
C996       H1001   1.085       .  S
C997        C998   1.414       .  A
C998        C999   1.508       .  S
C999       H1003   1.111       .  S
C999       H1004   1.108       .  S
C999       H1005   1.109       .  S
C1002      H1006   1.109       .  S
C1002      H1007   1.110       .  S
C1002      H1008   1.111       .  S
C1009      C1010   1.410       .  A
C1009      C1014   1.397       .  A
C1009      H1016   1.083       .  S
C1010      C1011   1.423       .  A
C1011      C1018   1.510       .  S
C1011      C1012   1.402       .  A
C1012      C1013   1.400       .  A
C1012      H1017   1.083       .  S
C1013      C1014   1.407       .  A
C1014      C1015   1.506       .  S
C1015      H1019   1.111       .  S
C1015      H1020   1.107       .  S
C1015      H1021   1.108       .  S
C1018      H1022   1.110       .  S
C1018      H1023   1.110       .  S
C1018      H1024   1.111       .  S
C1025      C1026   1.397       .  A
C1025      C1030   1.409       .  A
C1025      H1032   1.085       .  S
C1026      C1027   1.412       .  A
C1027      C1034   1.505       .  S
C1027      C1028   1.415       .  A
C1028      C1029   1.411       .  A
C1028      H1033   1.083       .  S
C1029      C1030   1.433       .  A
C1030      C1031   1.511       .  S
C1031      H1035   1.111       .  S
C1031      H1036   1.107       .  S
C1031      H1037   1.109       .  S
C1034      H1038   1.106       .  S
C1034      H1039   1.111       .  S
C1034      H1040   1.111       .  S
C1041      C1042   1.411       .  A
C1041      C1046   1.401       .  A
C1041      H1048   1.083       .  S
C1042      C1043   1.426       .  A
C1043      C1050   1.510       .  S
C1043      C1044   1.405       .  A
C1044      C1045   1.399       .  A
C1044      H1049   1.085       .  S
C1045      C1046   1.409       .  A
C1046      C1047   1.509       .  S
C1047      H1051   1.111       .  S
C1047      H1052   1.108       .  S
C1047      H1053   1.110       .  S
C1050      H1054   1.110       .  S
C1050      H1055   1.111       .  S
C1050      H1056   1.111       .  S
C1057      C1058   1.399       .  A
C1057      C1062   1.404       .  A
C1057      H1064   1.085       .  S
C1058      C1059   1.414       .  A
C1059      C1066   1.507       .  S
C1059      C1060   1.409       .  A
C1060      C1061   1.403       .  A
C1060      H1065   1.084       .  S
C1061      C1062   1.418       .  A
C1062      C1063   1.507       .  S
C1063      H1067   1.111       .  S
C1063      H1068   1.108       .  S
C1063      H1069   1.107       .  S
C1066      H1070   1.110       .  S
C1066      H1071   1.111       .  S
C1066      H1072   1.111       .  S
C1073      C1074   1.402       .  A
C1073      C1078   1.409       .  A
C1073      H1080   1.085       .  S
C1074      C1075   1.416       .  A
C1075      C1082   1.510       .  S
C1075      C1076   1.408       .  A
C1076      C1077   1.404       .  A
C1076      H1081   1.073       .  S
C1077      C1078   1.422       .  A
C1078      C1079   1.507       .  S
C1079      H1083   1.111       .  S
C1079      H1084   1.105       .  S
C1079      H1085   1.110       .  S
C1082      H1086   1.111       .  S
C1082      H1087   1.107       .  S
C1082      H1088   1.110       .  S
C1089      C1090   1.406       .  A
C1089      C1094   1.402       .  A
C1089      H1096   1.084       .  S
C1090      C1091   1.417       .  A
C1091      C1098   1.511       .  S
C1091      C1092   1.401       .  A
C1092      C1093   1.407       .  A
C1092      H1097   1.077       .  S
C1093      C1094   1.421       .  A
C1094      C1095   1.508       .  S
C1095      H1099   1.111       .  S
C1095      H1100   1.107       .  S
C1095      H1101   1.106       .  S
C1098      H1102   1.111       .  S
C1098      H1103   1.110       .  S
C1098      H1104   1.111       .  S
C1105      C1106   1.402       .  A
C1105      C1110   1.403       .  A
C1105      H1112   1.085   1_545  S
C1106      C1107   1.405       .  A
C1107      C1114   1.507       .  S
C1107      C1108   1.402       .  A
C1108      C1109   1.409       .  A
C1108      H1113   1.084       .  S
C1109      C1110   1.412       .  A
C1110      C1111   1.502   1_545  S
C1111      H1115   1.108       .  S
C1111      H1116   1.111       .  S
C1111      H1117   1.109       .  S
C1114      H1118   1.111       .  S
C1114      H1119   1.111       .  S
C1114      H1120   1.111       .  S
C1121      C1122   1.412       .  A
C1121      C1126   1.404       .  A
C1121      H1128   1.084   1_545  S
C1122      C1123   1.411       .  A
C1123      C1130   1.506       .  S
C1123      C1124   1.410       .  A
C1124      C1125   1.414       .  A
C1124      H1129   1.084       .  S
C1125      C1126   1.410       .  A
C1126      C1127   1.506   1_545  S
C1127      H1131   1.111       .  S
C1127      H1132   1.108       .  S
C1127      H1133   1.110       .  S
C1130      H1134   1.110       .  S
C1130      H1135   1.109       .  S
C1130      H1136   1.111       .  S
C1137      C1138   1.409       .  A
C1137      C1142   1.402       .  A
C1137      H1144   1.073       .  S
C1138      C1139   1.432       .  A
C1139      C1146   1.516       .  S
C1139      C1140   1.409       .  A
C1140      C1141   1.402       .  A
C1140      H1145   1.084       .  S
C1141      C1142   1.417       .  A
C1142      C1143   1.510       .  S
C1143      H1147   1.111       .  S
C1143      H1148   1.110       .  S
C1143      H1149   1.107       .  S
C1146      H1150   1.111       .  S
C1146      H1151   1.106       .  S
C1146      H1152   1.106       .  S
C1153      C1154   1.398       .  A
C1153      C1158   1.401       .  A
C1153      H1160   1.084       .  S
C1154      C1155   1.422       .  A
C1155      C1162   1.510       .  S
C1155      C1156   1.399       .  A
C1156      C1157   1.396       .  A
C1156      H1161   1.085       .  S
C1157      C1158   1.415       .  A
C1158      C1159   1.506       .  S
C1159      H1163   1.111       .  S
C1159      H1164   1.109       .  S
C1159      H1165   1.104       .  S
C1162      H1166   1.110       .  S
C1162      H1167   1.107       .  S
C1162      H1168   1.111       .  S
C1169      C1170   1.408       .  A
C1169      C1174   1.400       .  A
C1169      H1176   1.074       .  S
C1170      C1171   1.432       .  A
C1171      C1178   1.516       .  S
C1171      C1172   1.402       .  A
C1172      C1173   1.397       .  A
C1172      H1177   1.083       .  S
C1173      C1174   1.414       .  A
C1174      C1175   1.509       .  S
C1175      H1179   1.111       .  S
C1175      H1180   1.110       .  S
C1175      H1181   1.109       .  S
C1178      H1182   1.107       .  S
C1178      H1183   1.106       .  S
C1178      H1184   1.111       .  S
C1185      C1186   1.387       .  A
C1185      C1190   1.395       .  A
C1185      H1192   1.084       .  S
C1186      C1187   1.432       .  A
C1187      C1194   1.508       .  S
C1187      C1188   1.412       .  A
C1188      C1189   1.399       .  A
C1188      H1193   1.084       .  S
C1189      C1190   1.424       .  A
C1190      C1191   1.493       .  S
C1191      H1195   1.111       .  S
C1191      H1196   1.107       .  S
C1191      H1197   1.106       .  S
C1194      H1198   1.107       .  S
C1194      H1199   1.111       .  S
C1194      H1200   1.111       .  S
C1201      C1202   1.385   1_545  A
C1201      C1206   1.399       .  A
C1201      H1208   1.085       .  S
C1202      C1203   1.420       .  A
C1203      C1210   1.506       .  S
C1203      C1204   1.415       .  A
C1204      C1205   1.408       .  A
C1204      H1209   1.084       .  S
C1205      C1206   1.440   1_565  A
C1206      C1207   1.510       .  S
C1207      H1211   1.111       .  S
C1207      H1212   1.101       .  S
C1207      H1213   1.110       .  S
C1210      H1214   1.109       .  S
C1210      H1215   1.110       .  S
C1210      H1216   1.110       .  S
C1217      C1218   1.402   1_545  A
C1217      C1222   1.402       .  A
C1217      H1224   1.085       .  S
C1218      C1219   1.407       .  A
C1219      C1226   1.507       .  S
C1219      C1220   1.404       .  A
C1220      C1221   1.408       .  A
C1220      H1225   1.084       .  S
C1221      C1222   1.415   1_565  A
C1222      C1223   1.507       .  S
C1223      H1227   1.111       .  S
C1223      H1228   1.102       .  S
C1223      H1229   1.111       .  S
C1226      H1230   1.110       .  S
C1226      H1231   1.111       .  S
C1226      H1232   1.111       .  S
C1233      C1234   1.411       .  A
C1233      C1238   1.405       .  A
C1233      H1240   1.076       .  S
C1234      C1235   1.429       .  A
C1235      C1242   1.510       .  S
C1235      C1236   1.408       .  A
C1236      C1237   1.404       .  A
C1236      H1241   1.084       .  S
C1237      C1238   1.422       .  A
C1238      C1239   1.512       .  S
C1239      H1243   1.111       .  S
C1239      H1244   1.108       .  S
C1239      H1245   1.110       .  S
C1242      H1246   1.106       .  S
C1242      H1247   1.108       .  S
C1242      H1248   1.111       .  S
C1249      C1250   1.411       .  A
C1249      C1254   1.397       .  A
C1249      H1256   1.084       .  S
C1250      C1251   1.411       .  A
C1251      C1258   1.504       .  S
C1251      C1252   1.414       .  A
C1252      C1253   1.416       .  A
C1252      H1257   1.084       .  S
C1253      C1254   1.407       .  A
C1254      C1255   1.501       .  S
C1255      H1259   1.111       .  S
C1255      H1260   1.106       .  S
C1255      H1261   1.107       .  S
C1258      H1262   1.106       .  S
C1258      H1263   1.109       .  S
C1258      H1264   1.111       .  S
C1265      C1266   1.414       .  A
C1265      C1270   1.397       .  A
C1265      H1272   1.077       .  S
C1266      C1267   1.428       .  A
C1267      C1274   1.511       .  S
C1267      C1268   1.404       .  A
C1268      C1269   1.398       .  A
C1268      H1273   1.085       .  S
C1269      C1270   1.402       .  A
C1270      C1271   1.506       .  S
C1271      H1275   1.111       .  S
C1271      H1276   1.110       .  S
C1271      H1277   1.110       .  S
C1274      H1278   1.104       .  S
C1274      H1279   1.111       .  S
C1274      H1280   1.110       .  S
C1281      C1282   1.410       .  A
C1281      C1286   1.415       .  A
C1281      H1288   1.083       .  S
C1282      C1283   1.408       .  A
C1283      C1290   1.511       .  S
C1283      C1284   1.388       .  A
C1284      C1285   1.407       .  A
C1284      H1289   1.086       .  S
C1285      C1286   1.412       .  A
C1286      C1287   1.504       .  S
C1287      H1291   1.111       .  S
C1287      H1292   1.110       .  S
C1287      H1293   1.110       .  S
C1290      H1294   1.107       .  S
C1290      H1295   1.111       .  S
C1290      H1296   1.110       .  S
C1297      C1298   1.395   1_455  A
C1297      C1302   1.399       .  A
C1297      H1304   1.085       .  S
C1298      C1299   1.415       .  A
C1299      C1306   1.507       .  S
C1299      C1300   1.405       .  A
C1300      C1301   1.411       .  A
C1300      H1305   1.075       .  S
C1301      C1302   1.432   1_655  A
C1302      C1303   1.511       .  S
C1303      H1307   1.110       .  S
C1303      H1308   1.096       .  S
C1303      H1309   1.111       .  S
C1306      H1310   1.110       .  S
C1306      H1311   1.109       .  S
C1306      H1312   1.111       .  S
C1313      C1314   1.405   1_455  A
C1313      C1318   1.404       .  A
C1313      H1320   1.084       .  S
C1314      C1315   1.423       .  A
C1315      C1322   1.513       .  S
C1315      C1316   1.402       .  A
C1316      C1317   1.409       .  A
C1316      H1321   1.080       .  S
C1317      C1318   1.427   1_655  A
C1318      C1319   1.509       .  S
C1319      H1323   1.111       .  S
C1319      H1324   1.098       .  S
C1319      H1325   1.110       .  S
C1322      H1326   1.111       .  S
C1322      H1327   1.109       .  S
C1322      H1328   1.111       .  S
C1329      C1330   1.413       .  A
C1329      C1334   1.401       .  A
C1329      H1336   1.083       .  S
C1330      C1331   1.425       .  A
C1331      C1338   1.508       .  S
C1331      C1332   1.409       .  A
C1332      C1333   1.401       .  A
C1332      H1337   1.084       .  S
C1333      C1334   1.406       .  A
C1334      C1335   1.507       .  S
C1335      H1339   1.111       .  S
C1335      H1340   1.109       .  S
C1335      H1341   1.110       .  S
C1338      H1342   1.109       .  S
C1338      H1343   1.110       .  S
C1338      H1344   1.111       .  S
C1345      C1346   1.412       .  A
C1345      C1350   1.402       .  A
C1345      H1352   1.084       .  S
C1346      C1347   1.422       .  A
C1347      C1354   1.505       .  S
C1347      C1348   1.400       .  A
C1348      C1349   1.396       .  A
C1348      H1353   1.086       .  S
C1349      C1350   1.404       .  A
C1350      C1351   1.507       .  S
C1351      H1355   1.111       .  S
C1351      H1356   1.110       .  S
C1351      H1357   1.109       .  S
C1354      H1358   1.095       .  S
C1354      H1359   1.111       .  S
C1354      H1360   1.110       .  S
C1361      C1362   1.402       .  A
C1361      C1366   1.408       .  A
C1361      H1368   1.084       .  S
C1362      C1363   1.415       .  A
C1363      C1370   1.509       .  S
C1363      C1364   1.407       .  A
C1364      C1365   1.402       .  A
C1364      H1369   1.074       .  S
C1365      C1366   1.419       .  A
C1366      C1367   1.508       .  S
C1367      H1371   1.111       .  S
C1367      H1372   1.106       .  S
C1367      H1373   1.108       .  S
C1370      H1374   1.110       .  S
C1370      H1375   1.109       .  S
C1370      H1376   1.111       .  S
C1377      C1378   1.391       .  A
C1377      C1382   1.396       .  A
C1377      H1384   1.085       .  S
C1378      C1379   1.404       .  A
C1379      C1386   1.507       .  S
C1379      C1380   1.402       .  A
C1380      C1381   1.410       .  A
C1380      H1385   1.083       .  S
C1381      C1382   1.423       .  A
C1382      C1383   1.505       .  S
C1383      H1387   1.111       .  S
C1383      H1388   1.104       .  S
C1383      H1389   1.100       .  S
C1386      H1390   1.109       .  S
C1386      H1391   1.111       .  S
C1386      H1392   1.111       .  S
C1393      C1394   1.395       .  A
C1393      C1398   1.400       .  A
C1393      H1400   1.084       .  S
C1394      C1395   1.413       .  A
C1395      C1402   1.509       .  S
C1395      C1396   1.402       .  A
C1396      C1397   1.409       .  A
C1396      H1401   1.083       .  S
C1397      C1398   1.428       .  A
C1398      C1399   1.511       .  S
C1399      H1403   1.111       .  S
C1399      H1404   1.108       .  S
C1399      H1405   1.110       .  S
C1402      H1406   1.107       .  S
C1402      H1407   1.110       .  S
C1402      H1408   1.111       .  S
C1409      C1410   1.397       .  A
C1409      C1414   1.408       .  A
C1409      H1416   1.085       .  S
C1410      C1411   1.414       .  A
C1411      C1418   1.506       .  S
C1411      C1412   1.415       .  A
C1412      C1413   1.408       .  A
C1412      H1417   1.084       .  S
C1413      C1414   1.429       .  A
C1414      C1415   1.511       .  S
C1415      H1419   1.111       .  S
C1415      H1420   1.107       .  S
C1415      H1421   1.110       .  S
C1418      H1422   1.110       .  S
C1418      H1423   1.110       .  S
C1418      H1424   1.111       .  S
C1425      C1426   1.411       .  A
C1425      C1430   1.405       .  A
C1425      H1432   1.083       .  S
C1426      C1427   1.424       .  A
C1427      C1434   1.509       .  S
C1427      C1428   1.405       .  A
C1428      C1429   1.400       .  A
C1428      H1433   1.083       .  S
C1429      C1430   1.413       .  A
C1430      C1431   1.509       .  S
C1431      H1435   1.111       .  S
C1431      H1436   1.106       .  S
C1431      H1437   1.110       .  S
C1434      H1438   1.111       .  S
C1434      H1439   1.110       .  S
C1434      H1440   1.111       .  S
C1441      C1442   1.406       .  A
C1441      C1446   1.404       .  A
C1441      H1448   1.083       .  S
C1442      C1443   1.414       .  A
C1443      C1450   1.507       .  S
C1443      C1444   1.404       .  A
C1444      C1445   1.401       .  A
C1444      H1449   1.084       .  S
C1445      C1446   1.410       .  A
C1446      C1447   1.507       .  S
C1447      H1451   1.111       .  S
C1447      H1452   1.108       .  S
C1447      H1453   1.110       .  S
C1450      H1454   1.107       .  S
C1450      H1455   1.110       .  S
C1450      H1456   1.111       .  S
C1457      C1458   1.401       .  A
C1457      C1462   1.402       .  A
C1457      H1464   1.084       .  S
C1458      C1459   1.423   1_655  A
C1459      C1466   1.513       .  S
C1459      C1460   1.402       .  A
C1460      C1461   1.410   1_455  A
C1460      H1465   1.075       .  S
C1461      C1462   1.426       .  A
C1462      C1463   1.507       .  S
C1463      H1467   1.110       .  S
C1463      H1468   1.097       .  S
C1463      H1469   1.111       .  S
C1466      H1470   1.111       .  S
C1466      H1471   1.108       .  S
C1466      H1472   1.111       .  S
C1473      C1474   1.405   1_455  A
C1473      C1478   1.406       .  A
C1473      H1480   1.084       .  S
C1474      C1475   1.418       .  A
C1475      C1482   1.510       .  S
C1475      C1476   1.408       .  A
C1476      C1477   1.413       .  A
C1476      H1481   1.074       .  S
C1477      C1478   1.429   1_655  A
C1478      C1479   1.514       .  S
C1479      H1483   1.111       .  S
C1479      H1484   1.105       .  S
C1479      H1485   1.106       .  S
C1482      H1486   1.110       .  S
C1482      H1487   1.110       .  S
C1482      H1488   1.111       .  S
C1489      C1490   1.398       .  A
C1489      C1494   1.402       .  A
C1489      H1496   1.085       .  S
C1490      C1491   1.413       .  A
C1491      C1498   1.508       .  S
C1491      C1492   1.406       .  A
C1492      C1493   1.402       .  A
C1492      H1497   1.084       .  S
C1493      C1494   1.416       .  A
C1494      C1495   1.506       .  S
C1495      H1499   1.111       .  S
C1495      H1500   1.107       .  S
C1495      H1501   1.109       .  S
C1498      H1502   1.111       .  S
C1498      H1503   1.110       .  S
C1498      H1504   1.111       .  S
C1505      C1506   1.411       .  A
C1505      C1510   1.405       .  A
C1505      H1512   1.083       .  S
C1506      C1507   1.426       .  A
C1507      C1514   1.509       .  S
C1507      C1508   1.408       .  A
C1508      C1509   1.403       .  A
C1508      H1513   1.083       .  S
C1509      C1510   1.412       .  A
C1510      C1511   1.507       .  S
C1511      H1515   1.111       .  S
C1511      H1516   1.111       .  S
C1511      H1517   1.104       .  S
C1514      H1518   1.111       .  S
C1514      H1519   1.110       .  S
C1514      H1520   1.111       .  S
C1521      C1522   1.405       .  A
C1521      C1526   1.400       .  A
C1521      H1528   1.084       .  S
C1522      C1523   1.420       .  A
C1523      C1530   1.509       .  S
C1523      C1524   1.398       .  A
C1524      C1525   1.395       .  A
C1524      H1529   1.084       .  S
C1525      C1526   1.406       .  A
C1526      C1527   1.506       .  S
C1527      H1531   1.111       .  S
C1527      H1532   1.109       .  S
C1527      H1533   1.111       .  S
C1530      H1534   1.109       .  S
C1530      H1535   1.109       .  S
C1530      H1536   1.111       .  S
C1537      C1538   1.405       .  A
C1537      C1542   1.416       .  A
C1537      H1544   1.084       .  S
C1538      C1539   1.427       .  A
C1539      C1546   1.509       .  S
C1539      C1540   1.410       .  A
C1540      C1541   1.399       .  A
C1540      H1545   1.084       .  S
C1541      C1542   1.415       .  A
C1542      C1543   1.500       .  S
C1543      H1547   1.111       .  S
C1543      H1548   1.104       .  S
C1543      H1549   1.110       .  S
C1546      H1550   1.110       .  S
C1546      H1551   1.105       .  S
C1546      H1552   1.111       .  S
C1553      C1554   1.406       .  A
C1553      C1558   1.407       .  A
C1553      H1560   1.084       .  S
C1554      C1555   1.425       .  A
C1555      C1562   1.507       .  S
C1555      C1556   1.413       .  A
C1556      C1557   1.403       .  A
C1556      H1561   1.084       .  S
C1557      C1558   1.415       .  A
C1558      C1559   1.499   1_565  S
C1559      H1563   1.111       .  S
C1559      H1564   1.108       .  S
C1559      H1565   1.108       .  S
C1562      H1566   1.111       .  S
C1562      H1567   1.109       .  S
C1562      H1568   1.111       .  S
C1569      C1570   1.399       .  A
C1569      C1574   1.398       .  A
C1569      H1576   1.085       .  S
C1570      C1571   1.411       .  A
C1571      C1578   1.508       .  S
C1571      C1572   1.401       .  A
C1572      C1573   1.401       .  A
C1572      H1577   1.084       .  S
C1573      C1574   1.412       .  A
C1574      C1575   1.509       .  S
C1575      H1579   1.111       .  S
C1575      H1580   1.109       .  S
C1575      H1581   1.108       .  S
C1578      H1582   1.110       .  S
C1578      H1583   1.111       .  S
C1578      H1584   1.111       .  S
C1585      C1586   1.406       .  A
C1585      C1590   1.404       .  A
C1585      H1592   1.084       .  S
C1586      C1587   1.424       .  A
C1587      C1594   1.510       .  S
C1587      C1588   1.403       .  A
C1588      C1589   1.402       .  A
C1588      H1593   1.084       .  S
C1589      C1590   1.417       .  A
C1590      C1591   1.505       .  S
C1591      H1595   1.111       .  S
C1591      H1596   1.104   1_565  S
C1591      H1597   1.106   1_565  S
C1594      H1598   1.109       .  S
C1594      H1599   1.110       .  S
C1594      H1600   1.111       .  S
C1601      C1602   1.400       .  A
C1601      C1606   1.406       .  A
C1601      H1608   1.084       .  S
C1602      C1603   1.413       .  A
C1603      C1610   1.509       .  S
C1603      C1604   1.403       .  A
C1604      C1605   1.400       .  A
C1604      H1609   1.078       .  S
C1605      C1606   1.417       .  A
C1606      C1607   1.508       .  S
C1607      H1611   1.111       .  S
C1607      H1612   1.108       .  S
C1607      H1613   1.108       .  S
C1610      H1614   1.110       .  S
C1610      H1615   1.111       .  S
C1610      H1616   1.111       .  S
C1617      C1618   1.409       .  A
C1617      C1622   1.404       .  A
C1617      H1624   1.076       .  S
C1618      C1619   1.432       .  A
C1619      C1626   1.515       .  S
C1619      C1620   1.397       .  A
C1620      C1621   1.395       .  A
C1620      H1625   1.085       .  S
C1621      C1622   1.418       .  A
C1622      C1623   1.511       .  S
C1623      H1627   1.111       .  S
C1623      H1628   1.110       .  S
C1623      H1629   1.109       .  S
C1626      H1630   1.100       .  S
C1626      H1631   1.111       .  S
C1626      H1632   1.110       .  S
C1633      C1634   1.399       .  A
C1633      C1638   1.392       .  A
C1633      H1640   1.086       .  S
C1634      C1635   1.416       .  A
C1635      C1642   1.504       .  S
C1635      C1636   1.415       .  A
C1636      C1637   1.407       .  A
C1636      H1641   1.084       .  S
C1637      C1638   1.415       .  A
C1638      C1639   1.508       .  S
C1639      H1643   1.111       .  S
C1639      H1644   1.108       .  S
C1639      H1645   1.107       .  S
C1642      H1646   1.109       .  S
C1642      H1647   1.108       .  S
C1642      H1648   1.111       .  S
C1649      C1650   1.402       .  A
C1649      C1654   1.409       .  A
C1649      H1656   1.085       .  S
C1650      C1651   1.414       .  A
C1651      C1658   1.511       .  S
C1651      C1652   1.398       .  A
C1652      C1653   1.410       .  A
C1652      H1657   1.076       .  S
C1653      C1654   1.428       .  A
C1654      C1655   1.510       .  S
C1655      H1659   1.111       .  S
C1655      H1660   1.104       .  S
C1655      H1661   1.110       .  S
C1658      H1662   1.109       .  S
C1658      H1663   1.109       .  S
C1658      H1664   1.111       .  S
C1665      C1666   1.404       .  A
C1665      C1670   1.411       .  A
C1665      H1672   1.084       .  S
C1666      C1667   1.407       .  A
C1667      C1674   1.508       .  S
C1667      C1668   1.400       .  A
C1668      C1669   1.410       .  A
C1668      H1673   1.085       .  S
C1669      C1670   1.419       .  A
C1670      C1671   1.507       .  S
C1671      H1675   1.110       .  S
C1671      H1676   1.104       .  S
C1671      H1677   1.111       .  S
C1674      H1678   1.107       .  S
C1674      H1679   1.110       .  S
C1674      H1680   1.111       .  S
C1681      C1682   1.409   1_554  A
C1681      C1686   1.400       .  A
C1681      H1688   1.077       .  S
C1682      C1683   1.426       .  A
C1683      C1690   1.512       .  S
C1683      C1684   1.397       .  A
C1684      C1685   1.400       .  A
C1684      H1689   1.085       .  S
C1685      C1686   1.414   1_556  A
C1686      C1687   1.510       .  S
C1687      H1691   1.111       .  S
C1687      H1692   1.110       .  S
C1687      H1693   1.109       .  S
C1690      H1694   1.103       .  S
C1690      H1695   1.111       .  S
C1690      H1696   1.111       .  S
C1697      C1698   1.407   1_554  A
C1697      C1702   1.392       .  A
C1697      H1704   1.083       .  S
C1698      C1699   1.415       .  A
C1699      C1706   1.505       .  S
C1699      C1700   1.415       .  A
C1700      C1701   1.408       .  A
C1700      H1705   1.084       .  S
C1701      C1702   1.411   1_556  A
C1702      C1703   1.511       .  S
C1703      H1707   1.111       .  S
C1703      H1708   1.106       .  S
C1703      H1709   1.111       .  S
C1706      H1710   1.108       .  S
C1706      H1711   1.110       .  S
C1706      H1712   1.111       .  S
C1713      C1714   1.398       .  A
C1713      C1718   1.405       .  A
C1713      H1720   1.085       .  S
C1714      C1715   1.415   1_554  A
C1715      C1722   1.508       .  S
C1715      C1716   1.403       .  A
C1716      C1717   1.410   1_556  A
C1716      H1721   1.077       .  S
C1717      C1718   1.430       .  A
C1718      C1719   1.511       .  S
C1719      H1723   1.111       .  S
C1719      H1724   1.102       .  S
C1719      H1725   1.110       .  S
C1722      H1726   1.110       .  S
C1722      H1727   1.106       .  S
C1722      H1728   1.111       .  S
C1729      C1730   1.402   1_554  A
C1729      C1734   1.408       .  A
C1729      H1736   1.084       .  S
C1730      C1731   1.419       .  A
C1731      C1738   1.507       .  S
C1731      C1732   1.403       .  A
C1732      C1733   1.397       .  A
C1732      H1737   1.085       .  S
C1733      C1734   1.415   1_556  A
C1734      C1735   1.507       .  S
C1735      H1739   1.111       .  S
C1735      H1740   1.110       .  S
C1735      H1741   1.109       .  S
C1738      H1742   1.110       .  S
C1738      H1743   1.108       .  S
C1738      H1744   1.110       .  S
C1745      C1746   1.412       .  A
C1745      C1750   1.400       .  A
C1745      H1752   1.081       .  S
C1746      C1747   1.426       .  A
C1747      C1754   1.508       .  S
C1747      C1748   1.409       .  A
C1748      C1749   1.403       .  A
C1748      H1753   1.085       .  S
C1749      C1750   1.406       .  A
C1750      C1751   1.499       .  S
C1751      H1755   1.111       .  S
C1751      H1756   1.106       .  S
C1751      H1757   1.110       .  S
C1754      H1758   1.110       .  S
C1754      H1759   1.106       .  S
C1754      H1760   1.111       .  S
C1761      C1762   1.401       .  A
C1761      C1766   1.404       .  A
C1761      H1768   1.081       .  S
C1762      C1763   1.418       .  A
C1763      C1770   1.505       .  S
C1763      C1764   1.404       .  A
C1764      C1765   1.399       .  A
C1764      H1769   1.085       .  S
C1765      C1766   1.413       .  A
C1766      C1767   1.508       .  S
C1767      H1771   1.111       .  S
C1767      H1772   1.110       .  S
C1767      H1773   1.110       .  S
C1770      H1774   1.104       .  S
C1770      H1775   1.110       .  S
C1770      H1776   1.110       .  S
C1777      C1778   1.412   1_554  A
C1777      C1782   1.401       .  A
C1777      H1784   1.072       .  S
C1778      C1779   1.430       .  A
C1779      C1786   1.511       .  S
C1779      C1780   1.407       .  A
C1780      C1781   1.401       .  A
C1780      H1785   1.085       .  S
C1781      C1782   1.413   1_556  A
C1782      C1783   1.509       .  S
C1783      H1787   1.111       .  S
C1783      H1788   1.109       .  S
C1783      H1789   1.109       .  S
C1786      H1790   1.111       .  S
C1786      H1791   1.102       .  S
C1786      H1792   1.111       .  S
C1793      C1794   1.398   1_556  A
C1793      C1798   1.401       .  A
C1793      H1800   1.085       .  S
C1794      C1795   1.415       .  A
C1795      C1802   1.503       .  S
C1795      C1796   1.403       .  A
C1796      C1797   1.398       .  A
C1796      H1801   1.084       .  S
C1797      C1798   1.419   1_554  A
C1798      C1799   1.508       .  S
C1799      H1803   1.111       .  S
C1799      H1804   1.111       .  S
C1799      H1805   1.108       .  S
C1802      H1806   1.109       .  S
C1802      H1807   1.108       .  S
C1802      H1808   1.111       .  S
C1809      C1810   1.402   1_556  A
C1809      C1814   1.397       .  A
C1809      H1816   1.085       .  S
C1810      C1811   1.408       .  A
C1811      C1818   1.505       .  S
C1811      C1812   1.391       .  A
C1812      C1813   1.409       .  A
C1812      H1817   1.084       .  S
C1813      C1814   1.416   1_554  A
C1814      C1815   1.506       .  S
C1815      H1819   1.111       .  S
C1815      H1820   1.108       .  S
C1815      H1821   1.110       .  S
C1818      H1822   1.109       .  S
C1818      H1823   1.110       .  S
C1818      H1824   1.110       .  S
C1825      C1826   1.381   1_556  A
C1825      C1830   1.394       .  A
C1825      H1832   1.084       .  S
C1826      C1827   1.418       .  A
C1827      C1834   1.506       .  S
C1827      C1828   1.412       .  A
C1828      C1829   1.406       .  A
C1828      H1833   1.083       .  S
C1829      C1830   1.443   1_554  A
C1830      C1831   1.513       .  S
C1831      H1835   1.111       .  S
C1831      H1836   1.103       .  S
C1831      H1837   1.110       .  S
C1834      H1838   1.110       .  S
C1834      H1839   1.108       .  S
C1834      H1840   1.111       .  S
C1841      C1842   1.400       .  A
C1841      C1846   1.404       .  A
C1841      H1848   1.084       .  S
C1842      C1843   1.420   1_545  A
C1843      C1850   1.509       .  S
C1843      C1844   1.410       .  A
C1844      C1845   1.411   1_565  A
C1844      H1849   1.076       .  S
C1845      C1846   1.432       .  A
C1846      C1847   1.513       .  S
C1847      H1851   1.111       .  S
C1847      H1852   1.101       .  S
C1847      H1853   1.111       .  S
C1850      H1854   1.111       .  S
C1850      H1855   1.109       .  S
C1850      H1856   1.111       .  S
C1857      C1858   1.412   1_565  A
C1857      C1862   1.396       .  A
C1857      H1864   1.075       .  S
C1858      C1859   1.429       .  A
C1859      C1866   1.513       .  S
C1859      C1860   1.407       .  A
C1860      C1861   1.398       .  A
C1860      H1865   1.084       .  S
C1861      C1862   1.411   1_545  A
C1862      C1863   1.513       .  S
C1863      H1867   1.111       .  S
C1863      H1868   1.109       .  S
C1863      H1869   1.111       .  S
C1866      H1870   1.105       .  S
C1866      H1871   1.106       .  S
C1866      H1872   1.111       .  S
C1873      C1874   1.408       .  A
C1873      C1878   1.396       .  A
C1873      H1880   1.084       .  S
C1874      C1875   1.421       .  A
C1875      C1882   1.510       .  S
C1875      C1876   1.406       .  A
C1876      C1877   1.404       .  A
C1876      H1881   1.083       .  S
C1877      C1878   1.412       .  A
C1878      C1879   1.509       .  S
C1879      H1883   1.111       .  S
C1879      H1884   1.110       .  S
C1879      H1885   1.106       .  S
C1882      H1886   1.109       .  S
C1882      H1887   1.111       .  S
C1882      H1888   1.111       .  S
C1889      C1890   1.400       .  A
C1889      C1894   1.405       .  A
C1889      H1896   1.084       .  S
C1890      C1891   1.409       .  A
C1891      C1898   1.505       .  S
C1891      C1892   1.405       .  A
C1892      C1893   1.407       .  A
C1892      H1897   1.084       .  S
C1893      C1894   1.421       .  A
C1894      C1895   1.510       .  S
C1895      H1899   1.111       .  S
C1895      H1900   1.109       .  S
C1895      H1901   1.111       .  S
C1898      H1902   1.107       .  S
C1898      H1903   1.110       .  S
C1898      H1904   1.111       .  S
C1905      C1906   1.403       .  A
C1905      C1910   1.403       .  A
C1905      H1912   1.084       .  S
C1906      C1907   1.421       .  A
C1907      C1914   1.510       .  S
C1907      C1908   1.402       .  A
C1908      C1909   1.397       .  A
C1908      H1913   1.084       .  S
C1909      C1910   1.411       .  A
C1910      C1911   1.504       .  S
C1911      H1915   1.111       .  S
C1911      H1916   1.110       .  S
C1911      H1917   1.107       .  S
C1914      H1918   1.109       .  S
C1914      H1919   1.109       .  S
C1914      H1920   1.111       .  S
C1921      C1922   1.400       .  A
C1921      C1926   1.405       .  A
C1921      H1928   1.085       .  S
C1922      C1923   1.412       .  A
C1923      C1930   1.511       .  S
C1923      C1924   1.398       .  A
C1924      C1925   1.410       .  A
C1924      H1929   1.076       .  S
C1925      C1926   1.428       .  A
C1926      C1927   1.510       .  S
C1927      H1931   1.111       .  S
C1927      H1932   1.110       .  S
C1927      H1933   1.104       .  S
C1930      H1934   1.109       .  S
C1930      H1935   1.110       .  S
C1930      H1936   1.111       .  S
C1937      C1938   1.409       .  A
C1937      C1942   1.405       .  A
C1937      H1944   1.075       .  S
C1938      C1939   1.430       .  A
C1939      C1946   1.513       .  S
C1939      C1940   1.400       .  A
C1940      C1941   1.401       .  A
C1940      H1945   1.085       .  S
C1941      C1942   1.418       .  A
C1942      C1943   1.508       .  S
C1943      H1947   1.111       .  S
C1943      H1948   1.110       .  S
C1943      H1949   1.109       .  S
C1946      H1950   1.100       .  S
C1946      H1951   1.111       .  S
C1946      H1952   1.111       .  S
C1953      C1954   1.402       .  A
C1953      C1958   1.408       .  A
C1953      H1960   1.085       .  S
C1954      C1955   1.406       .  A
C1955      C1962   1.508       .  S
C1955      C1956   1.402       .  A
C1956      C1957   1.411       .  A
C1956      H1961   1.084       .  S
C1957      C1958   1.419       .  A
C1958      C1959   1.505       .  S
C1959      H1963   1.111       .  S
C1959      H1964   1.101       .  S
C1959      H1965   1.110       .  S
C1962      H1966   1.111       .  S
C1962      H1967   1.110       .  S
C1962      H1968   1.111       .  S
C1969      C1970   1.408       .  A
C1969      C1974   1.401       .  A
C1969      H1976   1.084       .  S
C1970      C1971   1.425       .  A
C1971      C1978   1.510       .  S
C1971      C1972   1.403       .  A
C1972      C1973   1.400       .  A
C1972      H1977   1.084       .  S
C1973      C1974   1.419       .  A
C1974      C1975   1.511       .  S
C1975      H1979   1.111       .  S
C1975      H1980   1.103       .  S
C1975      H1981   1.110       .  S
C1978      H1982   1.110       .  S
C1978      H1983   1.110       .  S
C1978      H1984   1.111       .  S
C1985      C1986   1.402       .  A
C1985      C1990   1.404       .  A
C1985      H1992   1.082       .  S
C1986      C1987   1.415       .  A
C1987      C1994   1.510       .  S
C1987      C1988   1.395       .  A
C1988      C1989   1.406       .  A
C1988      H1993   1.083       .  S
C1989      C1990   1.422       .  A
C1990      C1991   1.510       .  S
C1991      H1995   1.111       .  S
C1991      H1996   1.110       .  S
C1991      H1997   1.111   1_565  S
C1994      H1998   1.110       .  S
C1994      H1999   1.105       .  S
C1994      H2000   1.111       .  S
C2001      C2002   1.401       .  A
C2001      C2006   1.403       .  A
C2001      H2008   1.084       .  S
C2002      C2003   1.419       .  A
C2003      C2010   1.507       .  S
C2003      C2004   1.408       .  A
C2004      C2005   1.400       .  A
C2004      H2009   1.084       .  S
C2005      C2006   1.413       .  A
C2006      C2007   1.502       .  S
C2007      H2011   1.111       .  S
C2007      H2012   1.110       .  S
C2007      H2013   1.108       .  S
C2010      H2014   1.109       .  S
C2010      H2015   1.111       .  S
C2010      H2016   1.111       .  S
C2017      C2018   1.411       .  A
C2017      C2022   1.396       .  A
C2017      H2024   1.084       .  S
C2018      C2019   1.419       .  A
C2019      C2026   1.503       .  S
C2019      C2020   1.399       .  A
C2020      C2021   1.400       .  A
C2020      H2025   1.085       .  S
C2021      C2022   1.410       .  A
C2022      C2023   1.511       .  S
C2023      H2027   1.111       .  S
C2023      H2028   1.111       .  S
C2023      H2029   1.109       .  S
C2026      H2030   1.110       .  S
C2026      H2031   1.103       .  S
C2026      H2032   1.111       .  S
C2033      C2034   1.395       .  A
C2033      C2038   1.402       .  A
C2033      H2040   1.085       .  S
C2034      C2035   1.413       .  A
C2035      C2042   1.505       .  S
C2035      C2036   1.410       .  A
C2036      C2037   1.404       .  A
C2036      H2041   1.084       .  S
C2037      C2038   1.429       .  A
C2038      C2039   1.509       .  S
C2039      H2043   1.111       .  S
C2039      H2044   1.104       .  S
C2039      H2045   1.110       .  S
C2042      H2046   1.110       .  S
C2042      H2047   1.110       .  S
C2042      H2048   1.110       .  S
C2049      C2050   1.412       .  A
C2049      C2054   1.400       .  A
C2049      H2056   1.084       .  S
C2050      C2051   1.419       .  A
C2051      C2058   1.503       .  S
C2051      C2052   1.413       .  A
C2052      C2053   1.404       .  A
C2052      H2057   1.080       .  S
C2053      C2054   1.411       .  A
C2054      C2055   1.511       .  S
C2055      H2059   1.111       .  S
C2055      H2060   1.111       .  S
C2055      H2061   1.108       .  S
C2058      H2062   1.107       .  S
C2058      H2063   1.107       .  S
C2058      H2064   1.111       .  S
C2065      C2066   1.408       .  A
C2065      C2070   1.395       .  A
C2065      H2072   1.077       .  S
C2066      C2067   1.425   1_545  A
C2067      C2074   1.509       .  S
C2067      C2068   1.406       .  A
C2068      C2069   1.405   1_565  A
C2068      H2073   1.084       .  S
C2069      C2070   1.420       .  A
C2070      C2071   1.514       .  S
C2071      H2075   1.111       .  S
C2071      H2076   1.110       .  S
C2071      H2077   1.110       .  S
C2074      H2078   1.110       .  S
C2074      H2079   1.104       .  S
C2074      H2080   1.111       .  S
C2081      C2082   1.402   1_565  A
C2081      C2086   1.401       .  A
C2081      H2088   1.085       .  S
C2082      C2083   1.417       .  A
C2083      C2090   1.509       .  S
C2083      C2084   1.403       .  A
C2084      C2085   1.410       .  A
C2084      H2089   1.076       .  S
C2085      C2086   1.428   1_545  A
C2086      C2087   1.512       .  S
C2087      H2091   1.111       .  S
C2087      H2092   1.110       .  S
C2087      H2093   1.101       .  S
C2090      H2094   1.109       .  S
C2090      H2095   1.110       .  S
C2090      H2096   1.111       .  S
C2097      C2098   1.403       .  A
C2097      C2102   1.400       .  A
C2097      H2104   1.082       .  S
C2098      C2099   1.426       .  A
C2099      C2106   1.511       .  S
C2099      C2100   1.403       .  A
C2100      C2101   1.397       .  A
C2100      H2105   1.085       .  S
C2101      C2102   1.408       .  A
C2102      C2103   1.506       .  S
C2103      H2107   1.111       .  S
C2103      H2108   1.109       .  S
C2103      H2109   1.110       .  S
C2106      H2110   1.110       .  S
C2106      H2111   1.104       .  S
C2106      H2112   1.111       .  S
C2113      C2114   1.405       .  A
C2113      C2118   1.401       .  A
C2113      H2120   1.083       .  S
C2114      C2115   1.425       .  A
C2115      C2122   1.510       .  S
C2115      C2116   1.403       .  A
C2116      C2117   1.400       .  A
C2116      H2121   1.084       .  S
C2117      C2118   1.414       .  A
C2118      C2119   1.500       .  S
C2119      H2123   1.111       .  S
C2119      H2124   1.098       .  S
C2119      H2125   1.107       .  S
C2122      H2126   1.107       .  S
C2122      H2127   1.111       .  S
C2122      H2128   1.111       .  S
C2129      C2130   1.409       .  A
C2129      C2134   1.403       .  A
C2129      H2136   1.081       .  S
C2130      C2131   1.423       .  A
C2131      C2138   1.509       .  S
C2131      C2132   1.404       .  A
C2132      C2133   1.406       .  A
C2132      H2137   1.084       .  S
C2133      C2134   1.417       .  A
C2134      C2135   1.511       .  S
C2135      H2139   1.111       .  S
C2135      H2140   1.109       .  S
C2135      H2141   1.111       .  S
C2138      H2142   1.108       .  S
C2138      H2143   1.107       .  S
C2138      H2144   1.111       .  S
C2145      C2146   1.401       .  A
C2145      C2150   1.407       .  A
C2145      H2152   1.084       .  S
C2146      C2147   1.411       .  A
C2147      C2154   1.507       .  S
C2147      C2148   1.406       .  A
C2148      C2149   1.409       .  A
C2148      H2153   1.084       .  S
C2149      C2150   1.424       .  A
C2150      C2151   1.510       .  S
C2151      H2155   1.111       .  S
C2151      H2156   1.109       .  S
C2151      H2157   1.111       .  S
C2154      H2158   1.111       .  S
C2154      H2159   1.109       .  S
C2154      H2160   1.110       .  S
C2161      C2162   1.400       .  A
C2161      C2166   1.401       .  A
C2161      H2168   1.085       .  S
C2162      C2163   1.417       .  A
C2163      C2170   1.510       .  S
C2163      C2164   1.404       .  A
C2164      C2165   1.409       .  A
C2164      H2169   1.078       .  S
C2165      C2166   1.429       .  A
C2166      C2167   1.512       .  S
C2167      H2171   1.111       .  S
C2167      H2172   1.111       .  S
C2167      H2173   1.103       .  S
C2170      H2174   1.109       .  S
C2170      H2175   1.110       .  S
C2170      H2176   1.111       .  S
C2177      C2178   1.410       .  A
C2177      C2182   1.394       .  A
C2177      H2184   1.074       .  S
C2178      C2179   1.430       .  A
C2179      C2186   1.511       .  S
C2179      C2180   1.406       .  A
C2180      C2181   1.398       .  A
C2180      H2185   1.085       .  S
C2181      C2182   1.410       .  A
C2182      C2183   1.511       .  S
C2183      H2187   1.111       .  S
C2183      H2188   1.110       .  S
C2183      H2189   1.109       .  S
C2186      H2190   1.103       .  S
C2186      H2191   1.111       .  S
C2186      H2192   1.111       .  S
C2193      C2194   1.408       .  A
C2193      C2198   1.403       .  A
C2193      H2200   1.084       .  S
C2194      C2195   1.423       .  A
C2195      C2202   1.509       .  S
C2195      C2196   1.403       .  A
C2196      C2197   1.399       .  A
C2196      H2201   1.085       .  S
C2197      C2198   1.410       .  A
C2198      C2199   1.509       .  S
C2199      H2203   1.111       .  S
C2199      H2204   1.110       .  S
C2199      H2205   1.109       .  S
C2202      H2206   1.102       .  S
C2202      H2207   1.110       .  S
C2202      H2208   1.111       .  S
C2209      C2210   1.409       .  A
C2209      C2214   1.410       .  A
C2209      H2216   1.084       .  S
C2210      C2211   1.426       .  A
C2211      C2218   1.511       .  S
C2211      C2212   1.406       .  A
C2212      C2213   1.400       .  A
C2212      H2217   1.083       .  S
C2213      C2214   1.412       .  A
C2214      C2215   1.505       .  S
C2215      H2219   1.110       .  S
C2215      H2220   1.111       .  S
C2215      H2221   1.108       .  S
C2218      H2222   1.109       .  S
C2218      H2223   1.111       .  S
C2218      H2224   1.111       .  S
C2225      C2226   1.401       .  A
C2225      C2230   1.408       .  A
C2225      H2232   1.084       .  S
C2226      C2227   1.416       .  A
C2227      C2234   1.507       .  S
C2227      C2228   1.407       .  A
C2228      C2229   1.401       .  A
C2228      H2233   1.084       .  S
C2229      C2230   1.415       .  A
C2230      C2231   1.504       .  S
C2231      H2235   1.111       .  S
C2231      H2236   1.107       .  S
C2231      H2237   1.110       .  S
C2234      H2238   1.109       .  S
C2234      H2239   1.109       .  S
C2234      H2240   1.111       .  S
C2241      C2242   1.403       .  A
C2241      C2246   1.403       .  A
C2241      H2248   1.084       .  S
C2242      C2243   1.420       .  A
C2243      C2250   1.508       .  S
C2243      C2244   1.402       .  A
C2244      C2245   1.397       .  A
C2244      H2249   1.085       .  S
C2245      C2246   1.412       .  A
C2246      C2247   1.506       .  S
C2247      H2251   1.111       .  S
C2247      H2252   1.109       .  S
C2247      H2253   1.109       .  S
C2250      H2254   1.105       .  S
C2250      H2255   1.111       .  S
C2250      H2256   1.110       .  S
