geometry optimzed in LAMMPS
_audit_creation_date              2020-11-30 
_audit_creation_method            'lammps2cif' 
_symmetry_space_group_name_H-M    'P1' 
_symmetry_Int_Tables_number       1 
_symmetry_cell_setting            triclinic 
loop_ 
_symmetry_equiv_pos_as_xyz 
  x,y,z 
_cell_length_a                    101.5973157 
_cell_length_b                    101.19664715065582 
_cell_length_c                    80.31180312004857 
_cell_angle_alpha                 90.56419164432697 
_cell_angle_beta                  89.59981829018322 
_cell_angle_gamma                 119.92638482235702 
loop_ 
_atom_site_label 
_atom_site_type_symbol 
_atom_site_fract_x 
_atom_site_fract_y 
_atom_site_fract_z 
_atom_site_charge 
O1          O  0.55575907  0.36788744  0.40557074    -0.56600
C2          C  0.53143546  0.32347297  0.40203856     0.76000
O3          O  0.51176887  0.35417973  0.42497815    -0.57800
C4          C  0.55473449  0.37975921  0.40764547     0.76000
C5          C  0.51683456  0.35127512  0.37157924     0.78400
Cd6        Cd  0.52803285  0.35003572  0.40439181     1.37500
O7          O  0.54271122  0.33674527  0.40393186    -0.56600
O8          O  0.53041978  0.35497127  0.37453250    -0.55400
C9          C  0.51369572  0.34712142  0.43678795     0.78300
O10         O  0.50777508  0.34658758  0.38388724    -0.57800
O11         O  0.51850024  0.32242280  0.40089068    -0.56300
O12         O  0.54148200  0.37783435  0.40873924    -0.56200
O13         O  0.52152977  0.34089622  0.43341815    -0.55400
O14         O  0.70536374  0.49956595  0.40811952    -0.56600
C15         C  0.66260527  0.47748586  0.40844014     0.76000
O16         O  0.69640404  0.52752210  0.43323036    -0.57800
C17         C  0.71684890  0.51253193  0.40550064     0.76000
C18         C  0.67887313  0.52015446  0.38094354     0.78400
Cd19       Cd  0.68685459  0.50856140  0.40970906     1.37500
O20         O  0.67635714  0.48068737  0.40838567    -0.56600
O21         O  0.68298285  0.51027805  0.37982466    -0.55400
C22         C  0.68700160  0.51861427  0.44385434     0.78300
O23         O  0.67910701  0.52539784  0.39538080    -0.57800
O24         O  0.66018564  0.48860217  0.40929817    -0.56300
O25         O  0.71448130  0.52364137  0.40463246    -0.56200
O26         O  0.67723570  0.50559172  0.43852533    -0.55400
O27         O  0.52635654  0.32228065  0.59566654    -0.56600
C28         C  0.53952240  0.36430393  0.60578775     0.76000
O29         O  0.51349561  0.34546233  0.57167353    -0.57800
C30         C  0.51631412  0.30959075  0.60137297     0.76000
C31         C  0.49410842  0.33598668  0.62880292     0.78400
Cd32       Cd  0.51193479  0.33570059  0.60039311     1.37500
O33         O  0.53942249  0.35174200  0.60601498    -0.56600
O34         O  0.50561574  0.33439753  0.63038331    -0.55400
C35         C  0.50166396  0.33395219  0.56617381     0.78300
O36         O  0.49039861  0.33693958  0.61402978    -0.57800
O37         O  0.52695110  0.36363644  0.60309476    -0.56300
O38         O  0.50428945  0.30895441  0.60681415    -0.56200
O39         O  0.49398858  0.32366555  0.57665401    -0.55400
O40         O  0.68751515  0.47639136  0.60603260    -0.56600
C41         C  0.64813412  0.45867532  0.60507595     0.76000
O42         O  0.68163836  0.49925322  0.63268232    -0.57800
C43         C  0.70044716  0.48828269  0.60499573     0.76000
C44         C  0.67175069  0.50278174  0.57242738     0.78400
Cd45       Cd  0.67301166  0.48973340  0.60425383     1.37500
O46         O  0.65974541  0.46242609  0.59614059    -0.56600
O47         O  0.66019370  0.49558934  0.58156218    -0.55400
C48         C  0.67272996  0.50431162  0.63548803     0.78300
O49         O  0.68413759  0.50490522  0.57836213    -0.57800
O50         O  0.64810232  0.46917641  0.61370055    -0.56300
O51         O  0.70070914  0.50090487  0.60384076    -0.56200
O52         O  0.66435310  0.50354209  0.62349969    -0.55400
O53         O  0.20004217  0.52367347  0.60005470    -0.56600
C54         C  0.16830531  0.53409958  0.59586054     0.76000
O55         O  0.16315177  0.48729821  0.57361393    -0.57800
C56         C  0.20298927  0.51294076  0.59921100     0.76000
C57         C  0.15555973  0.49214468  0.62547456     0.78400
Cd58       Cd  0.17243229  0.50778868  0.59569033     1.37500
O59         O  0.18139086  0.53548286  0.59495201    -0.56600
O60         O  0.16872052  0.50370843  0.62608395    -0.55400
C61         C  0.16468663  0.49602070  0.56166314     0.78300
O62         O  0.15023027  0.48735877  0.61106138    -0.57800
O63         O  0.15719315  0.52064252  0.59682991    -0.56300
O64         O  0.19179871  0.49967022  0.59703306    -0.56200
O65         O  0.16921800  0.50976221  0.56551538    -0.55400
O66         O  0.19137756  0.53551677  0.40260334    -0.56600
C67         C  0.20105212  0.50389082  0.39225334     0.76000
O68         O  0.17266449  0.49580683  0.42503907    -0.57800
C69         C  0.18278368  0.53928038  0.39523478     0.76000
C70         C  0.15497267  0.49126334  0.36941773     0.78400
Cd71       Cd  0.17499697  0.50766541  0.39709718     1.37500
O72         O  0.20198092  0.51681302  0.39131891    -0.56600
O73         O  0.16838846  0.50210176  0.36734609    -0.55400
C74         C  0.16363194  0.49978070  0.43109085     0.78300
O75         O  0.15074187  0.48762751  0.38434839    -0.57800
O76         O  0.18804825  0.49265207  0.39530009    -0.56300
O77         O  0.17094890  0.52856739  0.38862306    -0.56200
O78         O  0.15932859  0.50657493  0.42132418    -0.55400
O79         O  0.31886775  0.78830474  0.40883219    -0.56600
C80         C  0.35987538  0.81262772  0.39949417     0.76000
O81         O  0.34702946  0.83591938  0.38261239    -0.57800
C82         C  0.30887209  0.78548313  0.39793578     0.76000
C83         C  0.32937791  0.82319764  0.43807885     0.78400
Cd84       Cd  0.33359620  0.81608781  0.40401543     1.37500
O85         O  0.34884457  0.80688143  0.38943292    -0.56600
O86         O  0.34251039  0.82840926  0.43186920    -0.55400
C87         C  0.33641406  0.83865217  0.37979497     0.78300
O88         O  0.31836866  0.81568670  0.42833888    -0.57800
O89         O  0.35872830  0.81982235  0.41190437    -0.56300
O90         O  0.31048019  0.79669800  0.38951123    -0.56200
O91         O  0.32476829  0.83176171  0.38890721    -0.55400
O92         O  0.48273911  0.79284367  0.39217381    -0.56600
C93         C  0.46365214  0.81418214  0.40232922     0.76000
O94         O  0.50161453  0.84140560  0.41796047    -0.57800
C95         C  0.49482491  0.79224278  0.39328569     0.76000
C96         C  0.50772426  0.83738435  0.36716851     0.78400
Cd97       Cd  0.49442915  0.82045603  0.39748384     1.37500
O98         O  0.47234794  0.82358041  0.39154821    -0.56600
O99         O  0.49455723  0.82584273  0.36770715    -0.55400
C100        C  0.50712383  0.83646888  0.42867130     0.78300
O101        O  0.51515989  0.84105924  0.38063307    -0.57800
O102        O  0.46905120  0.80746809  0.41068041    -0.56300
O103        O  0.50690539  0.80474405  0.39599666    -0.56200
O104        O  0.50770539  0.82465466  0.42462325    -0.55400
O105        O  0.32522346  0.79166282  0.60730751    -0.56600
C106        C  0.36843156  0.81676978  0.59941694     0.76000
O107        O  0.33261346  0.81455200  0.57250373    -0.57800
C108        C  0.31263765  0.79117686  0.60538817     0.76000
C109        C  0.34321026  0.83686722  0.63140479     0.78400
Cd110      Cd  0.34118445  0.81899105  0.60178855     1.37500
O111        O  0.35552184  0.80508690  0.60137691    -0.56600
O112        O  0.34489028  0.82531423  0.63204674    -0.55400
C113        C  0.34027129  0.82827570  0.56793562     0.78300
O114        O  0.34038739  0.84011362  0.61718493    -0.57800
O115        O  0.36876671  0.82940825  0.59871859    -0.56300
O116        O  0.31314948  0.80370414  0.60241023    -0.56200
O117        O  0.34794840  0.83791717  0.57911592    -0.55400
O118        O  0.48066879  0.82617389  0.59408684    -0.56600
C119        C  0.50878152  0.80952517  0.59721742     0.76000
O120        O  0.50532031  0.83902811  0.56214873    -0.57800
C121        C  0.48076243  0.83873647  0.59334143     0.76000
C122        C  0.52256499  0.85651408  0.62159348     0.78400
Cd123      Cd  0.50857562  0.83775701  0.59232198     1.37500
O124        O  0.49639619  0.80953961  0.59551580    -0.56600
O125        O  0.51272037  0.84251546  0.62242446    -0.55400
C126        C  0.51914142  0.84506378  0.55803480     0.78300
O127        O  0.52648931  0.86196728  0.60709749    -0.57800
O128        O  0.52079460  0.82236415  0.59673869    -0.56300
O129        O  0.49360459  0.85067266  0.59211458    -0.56200
O130        O  0.52848405  0.84830220  0.56983771    -0.55400
O131        O  0.19121501  0.65710575  0.59055622    -0.56600
C132        C  0.20149185  0.69988405  0.59216954     0.76000
O133        O  0.15573422  0.66362501  0.56737337    -0.57800
C134        C  0.18032034  0.64358297  0.58929217     0.76000
C135        C  0.15872330  0.66663637  0.61886234     0.78400
Cd136      Cd  0.17570863  0.66953860  0.58878042     1.37500
O137        O  0.20269979  0.68804804  0.59278292    -0.56600
O138        O  0.15411182  0.66831524  0.60487497    -0.55400
C139        C  0.16495095  0.66850183  0.55526873     0.78300
O140        O  0.17103177  0.66638332  0.61885573    -0.57800
O141        O  0.18826419  0.69780451  0.58998392    -0.56300
O142        O  0.16722876  0.64196544  0.58748278    -0.56200
O143        O  0.17880820  0.67375466  0.55875047    -0.55400
O144        O  0.20036682  0.68076767  0.38416661    -0.56600
C145        C  0.17106273  0.63599781  0.39122887     0.76000
O146        O  0.16025475  0.66661132  0.41777595    -0.57800
C147        C  0.20054009  0.69335397  0.38333453     0.76000
C148        C  0.15370868  0.66296376  0.36423517     0.78400
Cd149      Cd  0.17334275  0.66553674  0.39138495     1.37500
O150        O  0.18304633  0.64778683  0.38651155    -0.56600
O151        O  0.16563369  0.66212711  0.36229415    -0.55400
C152        C  0.17206354  0.67100459  0.42658505     0.78300
O153        O  0.15066975  0.66518443  0.37899383    -0.57800
O154        O  0.16019140  0.63785618  0.39593293    -0.56300
O155        O  0.18800744  0.69297599  0.38556219    -0.56200
O156        O  0.18382855  0.67289120  0.41911449    -0.55400
O157        O  0.32542414  0.53743493  0.38629397    -0.56600
C158        C  0.36855855  0.55436995  0.39609953     0.76000
O159        O  0.34594309  0.50891335  0.40879246    -0.57800
C160        C  0.31285280  0.52511416  0.38563979     0.76000
C161        C  0.34554830  0.51673181  0.35669638     0.78400
Cd162      Cd  0.34134220  0.52571546  0.38977362     1.37500
O163        O  0.35557830  0.55322565  0.39641438    -0.56600
O164        O  0.34939342  0.53027178  0.36069592    -0.55400
C165        C  0.33995684  0.51147276  0.42139809     0.78300
O166        O  0.33971418  0.50685821  0.36811534    -0.57800
O167        O  0.36896247  0.54231431  0.39284155    -0.56300
O168        O  0.31333573  0.51287632  0.38670129    -0.56200
O169        O  0.33412724  0.51978730  0.41906084    -0.55400
O170        O  0.48166178  0.65522298  0.41199026    -0.56600
C171        C  0.51284406  0.70013812  0.40941764     0.76000
O172        O  0.52848379  0.67632253  0.43680734    -0.57800
C173        C  0.48113771  0.64243307  0.41203472     0.76000
C174        C  0.52390568  0.66568118  0.38498946     0.78400
Cd175      Cd  0.50974686  0.67044345  0.41391876     1.37500
O176        O  0.50015322  0.68804840  0.40760515    -0.56600
O177        O  0.51462865  0.67053269  0.38408433    -0.55400
C178        C  0.51864907  0.67188921  0.44833156     0.78300
O179        O  0.52725966  0.66351322  0.39948250    -0.57800
O180        O  0.52396142  0.69848961  0.41334983    -0.56300
O181        O  0.49367287  0.64270041  0.41317945    -0.56200
O182        O  0.50501495  0.66665306  0.44386610    -0.55400
O183        O  0.31390967  0.51938883  0.58902664    -0.56600
C184        C  0.35620912  0.54088994  0.58619425     0.76000
O185        O  0.33508098  0.50528176  0.61400908    -0.57800
C186        C  0.30273163  0.50650726  0.59275426     0.76000
C187        C  0.32994748  0.49915834  0.55059293     0.78400
Cd188      Cd  0.33195232  0.50969697  0.58478464     1.37500
O189        O  0.34343522  0.53737275  0.58001010    -0.56600
O190        O  0.31908303  0.49252260  0.56074349    -0.55400
C191        C  0.33886783  0.49525691  0.61162127     0.78300
O192        O  0.34215445  0.50992390  0.55645899    -0.57800
O193        O  0.35775143  0.53002762  0.59157205    -0.56300
O194        O  0.30519066  0.49544850  0.59304983    -0.56200
O195        O  0.33929019  0.49151554  0.59660466    -0.55400
O196        O  0.46229228  0.65068092  0.59750382    -0.56600
C197        C  0.48657194  0.69662676  0.60615435     0.76000
O198        O  0.50619771  0.66626689  0.62696483    -0.57800
C199        C  0.45876079  0.64173167  0.60973308     0.76000
C200        C  0.50225398  0.66646797  0.57703718     0.78400
Cd201      Cd  0.48827476  0.66908294  0.60781621     1.37500
O202        O  0.47475922  0.68358206  0.60541754    -0.56600
O203        O  0.49715118  0.65612004  0.58790938    -0.55400
C204        C  0.50246518  0.67116849  0.63971078     0.78300
O205        O  0.50195958  0.67846619  0.58081321    -0.57800
O206        O  0.49912553  0.69692814  0.60764942    -0.56300
O207        O  0.46853216  0.64566057  0.62110802    -0.56200
O208        O  0.49310482  0.67571938  0.63739180    -0.55400
O209        O  0.62889941  0.08970684  0.25690989    -0.56600
C210        C  0.60284466  0.05058783  0.23341120     0.76000
O211        O  0.59702765  0.08879585  0.21726782    -0.57800
C212        C  0.63415727  0.10392112  0.25568669     0.76000
C213        C  0.63726798  0.08915086  0.20167632     0.78400
Cd214      Cd  0.61642103  0.08300170  0.22942704     1.37500
O215        O  0.61324724  0.05984508  0.24303012    -0.56600
O216        O  0.63679486  0.08144813  0.21419076    -0.55400
C217        C  0.58883135  0.08496414  0.23028321     0.78300
O218        O  0.62807829  0.09418009  0.20180524    -0.57800
O219        O  0.59898263  0.05630995  0.22177795    -0.56300
O220        O  0.63167673  0.10854667  0.24213570    -0.56200
O221        O  0.59350883  0.08063698  0.24244269    -0.55400
O222        O  0.51273347  0.87579719  0.23274757    -0.56600
C223        C  0.53436689  0.93246553  0.21923962     0.76000
O224        O  0.52387638  0.88674202  0.19399208    -0.57800
C225        C  0.51671202  0.88166100  0.24710861     0.76000
C226        C  0.48878780  0.89311276  0.21158287     0.78400
Cd227      Cd  0.51952364  0.89970339  0.21821616     1.37500
O228        O  0.53664037  0.92520249  0.23056359    -0.56600
O229        O  0.49423103  0.89574818  0.22614527    -0.55400
C230        C  0.53823531  0.89427394  0.19468050     0.78300
O231        O  0.49725202  0.89283278  0.20010692    -0.57800
O232        O  0.52533586  0.92462426  0.20774763    -0.56300
O233        O  0.52220666  0.89595412  0.24819478    -0.56200
O234        O  0.54388178  0.90400352  0.20632914    -0.55400
O235        O  0.72825236  0.09026398  0.07370153    -0.56600
C236        C  0.72259559  0.09100438  0.12442915     0.76000
O237        O  0.75038962  0.07096791  0.10585151    -0.57800
C238        C  0.73775982  0.09055665  0.06323379     0.76000
C239        C  0.76982240  0.11951930  0.10364835     0.78400
Cd240      Cd  0.74238636  0.09013044  0.09877522     1.37500
O241        O  0.72001198  0.09175077  0.10914572    -0.56600
O242        O  0.75690361  0.11802898  0.10101196    -0.55400
C243        C  0.73723730  0.05947400  0.10405690     0.78300
O244        O  0.77036901  0.10728226  0.10439425    -0.57800
O245        O  0.73430014  0.09013754  0.12774793    -0.56300
O246        O  0.74922987  0.09047427  0.06913643    -0.56200
O247        O  0.72690885  0.06222764  0.09973423    -0.55400
O248        O  0.62733888  0.90302368  0.10841218    -0.56600
C249        C  0.64925371  0.90898134  0.06329494     0.76000
O250        O  0.67770619  0.93245613  0.10715852    -0.57800
C251        C  0.63034242  0.90390858  0.12382318     0.76000
C252        C  0.65464650  0.88103603  0.10184591     0.78400
Cd253      Cd  0.65292612  0.90876844  0.09882182     1.37500
O254        O  0.63833771  0.90572786  0.07322605    -0.56600
O255        O  0.64266809  0.88143486  0.09885278    -0.55400
C256        C  0.67234714  0.94121165  0.10432799     0.78300
O257        O  0.66666845  0.89384324  0.10392819    -0.57800
O258        O  0.66182389  0.91211403  0.06976916    -0.56300
O259        O  0.64355681  0.90663655  0.12761855    -0.56200
O260        O  0.65880803  0.93492135  0.09927526    -0.55400
O261        O  0.72563009  0.10125260  0.89762286    -0.56600
C262        C  0.75130598  0.09792021  0.93292034     0.76000
O263        O  0.75008891  0.08002115  0.87762444    -0.57800
C264        C  0.72454742  0.10165712  0.88196391     0.76000
C265        C  0.77605696  0.12797984  0.89067981     0.78400
Cd266      Cd  0.74884798  0.09902608  0.89718296     1.37500
O267        O  0.74030322  0.09850633  0.92634047    -0.56600
O268        O  0.76341699  0.12672936  0.89452063    -0.55400
C269        C  0.74126008  0.06855974  0.88632286     0.78300
O270        O  0.77634887  0.11563983  0.88914965    -0.57800
O271        O  0.76109305  0.09796912  0.92306002    -0.56300
O272        O  0.73466466  0.10089884  0.87339769    -0.56200
O273        O  0.73642762  0.07132481  0.89968671    -0.55400
O274        O  0.63915297  0.91034613  0.89685627    -0.56600
C275        C  0.66652740  0.91687812  0.93394977     0.76000
O276        O  0.67861186  0.90540765  0.88140996    -0.57800
C277        C  0.63833418  0.91060815  0.88116243     0.76000
C278        C  0.68761372  0.94941140  0.89164526     0.78400
Cd279      Cd  0.66608022  0.91734973  0.89791888     1.37500
O280        O  0.65433889  0.91306443  0.92617121    -0.56600
O281        O  0.69177527  0.93965247  0.89355264    -0.55400
C282        C  0.67092451  0.89235010  0.88785742     0.78300
O283        O  0.67344860  0.94439993  0.89200474    -0.57800
O284        O  0.67829901  0.92109344  0.92518484    -0.56300
O285        O  0.65035247  0.91396395  0.87307612    -0.56200
O286        O  0.66099269  0.89089999  0.89837314    -0.55400
O287        O  0.60842292  0.07067674  0.75679587    -0.56600
C288        C  0.63620042  0.11400327  0.74713777     0.76000
O289        O  0.60189808  0.10087941  0.77152213    -0.57800
C290        C  0.60508093  0.06115656  0.76837432     0.76000
C291        C  0.64742669  0.09886047  0.79473530     0.78400
Cd292      Cd  0.62165318  0.09363233  0.77477960     1.37500
O293        O  0.62929459  0.09964564  0.74534648    -0.56600
O294        O  0.64522396  0.09337561  0.78016368    -0.55400
C295        C  0.59755727  0.09898864  0.78652556     0.78300
O296        O  0.63790328  0.10245476  0.80023026    -0.57800
O297        O  0.63667776  0.11901662  0.76177583    -0.56300
O298        O  0.60937268  0.06660250  0.78283002    -0.56200
O299        O  0.60472195  0.09521336  0.79641162    -0.55400
O300        O  0.54993465  0.93598839  0.76625600    -0.56600
C301        C  0.53408143  0.89346791  0.74588997     0.76000
O302        O  0.54610412  0.90163379  0.80172052    -0.57800
C303        C  0.54988995  0.94196148  0.78018510     0.76000
C304        C  0.50574004  0.90010054  0.78449715     0.78400
Cd305      Cd  0.53701250  0.90950440  0.77680717     1.37500
O306        O  0.54061882  0.90789124  0.74651142    -0.56600
O307        O  0.51311155  0.90912183  0.77281916    -0.55400
C308        C  0.55889360  0.90520484  0.79532059     0.78300
O309        O  0.51269308  0.89484412  0.79274294    -0.57800
O310        O  0.52888595  0.88650195  0.75947987    -0.56300
O311        O  0.54420128  0.93301599  0.79235021    -0.56200
O312        O  0.56118170  0.91023391  0.78063890    -0.55400
O313        O  0.37146079  0.09669605  0.10453701    -0.56600
C314        C  0.35187367  0.09847313  0.06450774     0.76000
O315        O  0.33612197  0.06948448  0.10590049    -0.57800
C316        C  0.37145656  0.09738757  0.12026926     0.76000
C317        C  0.34864177  0.12582694  0.10834090     0.78400
Cd318      Cd  0.34777240  0.09712521  0.10028011     1.37500
O319        O  0.36264154  0.10141805  0.07436997    -0.56600
O320        O  0.35887067  0.12496993  0.10023056    -0.55400
C321        C  0.32240122  0.06614376  0.10476335     0.78300
O322        O  0.33769523  0.11329062  0.11341393    -0.57800
O323        O  0.33916337  0.09476569  0.07110106    -0.56300
O324        O  0.36047683  0.09806843  0.12701482    -0.56200
O325        O  0.32015378  0.07719168  0.10219148    -0.55400
O326        O  0.25791725  0.90288850  0.07941138    -0.56600
C327        C  0.27301106  0.90956326  0.12160938     0.76000
O328        O  0.25998359  0.93647766  0.12207016    -0.57800
C329        C  0.25441852  0.90923144  0.06817149     0.76000
C330        C  0.21902035  0.89124528  0.11025893     0.78400
Cd331      Cd  0.25088761  0.91385922  0.10328913     1.37500
O332        O  0.27517687  0.91419004  0.10673161    -0.56600
O333        O  0.22923129  0.88770190  0.10844088    -0.55400
C334        C  0.26209842  0.94612220  0.11097135     0.78300
O335        O  0.22342099  0.90531440  0.10932194    -0.57800
O336        O  0.26056726  0.90688217  0.12823863    -0.56300
O337        O  0.24919097  0.91764082  0.07307378    -0.56200
O338        O  0.25832475  0.94087965  0.09633907    -0.55400
O339        O  0.37544063  0.91123987  0.26184495    -0.56600
C340        C  0.38513292  0.94025956  0.22864869     0.76000
O341        O  0.37350894  0.88629912  0.22712617    -0.57800
C342        C  0.36464415  0.89868691  0.26695407     0.76000
C343        C  0.34110209  0.90024542  0.21278970     0.78400
Cd344      Cd  0.36812575  0.90751887  0.23210692     1.37500
O345        O  0.37661038  0.93409003  0.24113229    -0.56600
O346        O  0.34242567  0.90409199  0.22796361    -0.55400
C347        C  0.38704626  0.89482589  0.22230128     0.78300
O348        O  0.35183871  0.89884933  0.20661215    -0.57800
O349        O  0.38562219  0.93136294  0.21783292    -0.56300
O350        O  0.35500400  0.89027966  0.25612104    -0.56200
O351        O  0.39134681  0.90883140  0.22093972    -0.55400
O352        O  0.45712190  0.09157690  0.26595791    -0.56600
C353        C  0.44047955  0.05941533  0.23915780     0.76000
O354        O  0.44880554  0.08981714  0.20923812    -0.57800
C355        C  0.46673757  0.10544558  0.26845662     0.76000
C356        C  0.49115748  0.09550426  0.22670319     0.78400
Cd357      Cd  0.46163297  0.09145611  0.23589022     1.37500
O358        O  0.43775174  0.06928246  0.24553480    -0.56600
O359        O  0.48251532  0.08584483  0.23727221    -0.55400
C360        C  0.44587809  0.10034352  0.21241669     0.78300
O361        O  0.48627555  0.10357128  0.22016236    -0.57800
O362        O  0.45282653  0.06438312  0.23118555    -0.56300
O363        O  0.47387501  0.11312354  0.25581523    -0.56200
O364        O  0.45103089  0.10747699  0.22597817    -0.55400
O365        O  0.27289083  0.90223265  0.89391629    -0.56600
C366        C  0.25415502  0.91261387  0.93755681     0.76000
O367        O  0.25603094  0.93522686  0.89179167    -0.57800
C368        C  0.27045328  0.90183309  0.87837460     0.76000
C369        C  0.22336374  0.88638218  0.89720170     0.78400
Cd370      Cd  0.25439315  0.91084078  0.90168772     1.37500
O371        O  0.26173781  0.90731204  0.93036441    -0.56600
O372        O  0.23350541  0.88456728  0.90412248    -0.55400
C373        C  0.27005415  0.94333592  0.89527419     0.78300
O374        O  0.22751011  0.89968703  0.89190469    -0.57800
O375        O  0.24699060  0.91685020  0.92825959    -0.56300
O376        O  0.26054211  0.90516118  0.87392550    -0.56200
O377        O  0.27641028  0.93641516  0.90120625    -0.55400
O378        O  0.35031777  0.10013696  0.92759102    -0.56600
C379        C  0.36855481  0.09921846  0.88473580     0.76000
O380        O  0.31381672  0.07201736  0.89129841    -0.57800
C381        C  0.33804639  0.09073475  0.93476176     0.76000
C382        C  0.33558626  0.11943573  0.89146581     0.78400
Cd383      Cd  0.33978275  0.09340235  0.89902210     1.37500
O384        O  0.36591517  0.09719456  0.90019567    -0.56600
O385        O  0.33535069  0.11053865  0.88013231    -0.55400
C386        C  0.31778062  0.06201438  0.88977422     0.78300
O387        O  0.33731532  0.11614393  0.90611369    -0.57800
O388        O  0.35819816  0.09913126  0.87597653    -0.56300
O389        O  0.32682858  0.08261788  0.92546077    -0.56200
O390        O  0.33179278  0.06671292  0.89143145    -0.55400
O391        O  0.37791674  0.92685146  0.76664605    -0.56600
C392        C  0.36445759  0.88461547  0.75233660     0.76000
O393        O  0.40399876  0.91551388  0.77570061    -0.57800
C394        C  0.38642289  0.93672907  0.77725635     0.76000
C395        C  0.35467133  0.89641141  0.80764042     0.78400
Cd396      Cd  0.37691214  0.90484349  0.78092325     1.37500
O397        O  0.36870028  0.89865895  0.75137433    -0.56600
O398        O  0.35166918  0.89782810  0.79273309    -0.55400
C399        C  0.40573618  0.90556370  0.78312079     0.78300
O400        O  0.36775818  0.89825253  0.81023430    -0.57800
O401        O  0.36544769  0.87986188  0.76651288    -0.56300
O402        O  0.39014376  0.93183290  0.78979306    -0.56200
O403        O  0.39412496  0.89510574  0.79036212    -0.55400
O404        O  0.44713880  0.06188033  0.76946129    -0.56600
C405        C  0.46400035  0.09562792  0.74197664     0.76000
O406        O  0.45653301  0.09764579  0.80387353    -0.57800
C407        C  0.44657069  0.05669214  0.78389379     0.76000
C408        C  0.49569219  0.10112891  0.78421812     0.78400
Cd409      Cd  0.46356761  0.08908440  0.77740426     1.37500
O410        O  0.46310408  0.08343448  0.74714535    -0.56600
O411        O  0.48610464  0.08705773  0.78394935    -0.55400
C412        C  0.44546035  0.09826058  0.79760270     0.78300
O413        O  0.49050574  0.11002708  0.78191019    -0.57800
O414        O  0.46456529  0.10487420  0.75309855    -0.56300
O415        O  0.45366884  0.06639609  0.79520709    -0.56200
O416        O  0.44339143  0.09551540  0.78217033    -0.55400
O417        O  0.27143766  0.36701455  0.10624576    -0.56600
C418        C  0.24965456  0.34169683  0.06379676     0.76000
O419        O  0.24319921  0.31708643  0.11114726    -0.57800
C420        C  0.26842411  0.36666550  0.12164622     0.76000
C421        C  0.21969449  0.34236370  0.10456246     0.78400
Cd422      Cd  0.24816173  0.34222789  0.09974289     1.37500
O423        O  0.25671471  0.35416882  0.07178322    -0.56600
O424        O  0.23190603  0.35375898  0.09971883    -0.55400
C425        C  0.25672437  0.31981537  0.10905827     0.78300
O426        O  0.22026761  0.33033994  0.10742179    -0.57800
O427        O  0.24229535  0.32978397  0.07235850    -0.56300
O428        O  0.25624427  0.35526740  0.12663769    -0.56200
O429        O  0.26597192  0.33268576  0.10300887    -0.55400
O430        O  0.35416645  0.26062235  0.07920937    -0.56600
C431        C  0.36409195  0.27051107  0.13288253     0.76000
O432        O  0.31836291  0.25474218  0.11556631    -0.57800
C433        C  0.34202002  0.25163243  0.07147285     0.76000
C434        C  0.33537925  0.22218042  0.11509230     0.78400
Cd435      Cd  0.34164586  0.25292920  0.10768815     1.37500
O436        O  0.36793026  0.27171937  0.11762183    -0.56600
O437        O  0.34832788  0.23272422  0.11049773    -0.55400
C438        C  0.32452873  0.26869296  0.11148037     0.78300
O439        O  0.32512699  0.22580128  0.11670809    -0.57800
O440        O  0.35038478  0.26099006  0.13623385    -0.56300
O441        O  0.33044447  0.24364015  0.08035209    -0.56200
O442        O  0.33794612  0.27474571  0.10594136    -0.55400
O443        O  0.38965743  0.46082478  0.22478322    -0.56600
C444        C  0.36492239  0.47548595  0.24488723     0.76000
O445        O  0.38957383  0.50237464  0.20375769    -0.57800
C446        C  0.39411844  0.45828503  0.21098080     0.76000
C447        C  0.35451068  0.45895399  0.18842290     0.78400
Cd448      Cd  0.37829538  0.47521465  0.21292316     1.37500
O449        O  0.36837163  0.46546061  0.24107209    -0.56600
O450        O  0.36456868  0.47273161  0.18623519    -0.55400
C451        C  0.40296672  0.50624781  0.20818334     0.78300
O452        O  0.35505725  0.45314684  0.20206963    -0.57800
O453        O  0.36717898  0.48518797  0.23378506    -0.56300
O454        O  0.39153864  0.46380948  0.19817362    -0.56200
O455        O  0.40477990  0.49592037  0.21464205    -0.55400
O456        O  0.45779015  0.36838932  0.26060068    -0.56600
C457        C  0.44577038  0.39243051  0.23343563     0.76000
O458        O  0.49178114  0.39673647  0.22114247    -0.57800
C459        C  0.46924911  0.36697568  0.26331576     0.76000
C460        C  0.45081054  0.35594759  0.20709654     0.78400
Cd461      Cd  0.46540889  0.37955469  0.23272750     1.37500
O462        O  0.44629559  0.38469285  0.24540041    -0.56600
O463        O  0.44494162  0.35503033  0.22126294    -0.55400
C464        C  0.49440826  0.40775248  0.23086522     0.78300
O465        O  0.46394087  0.36732191  0.20491628    -0.57800
O466        O  0.45415087  0.39403966  0.22099218    -0.56300
O467        O  0.47868727  0.37048302  0.25146509    -0.56200
O468        O  0.48390967  0.40558515  0.24090409    -0.55400
O469        O  0.36276845  0.47793971  0.74623191    -0.56600
C470        C  0.39045419  0.44881100  0.75772532     0.76000
O471        O  0.38617822  0.49257704  0.77489799    -0.57800
C472        C  0.36448629  0.47379906  0.73186002     0.76000
C473        C  0.35030076  0.44664077  0.78279423     0.78400
Cd474      Cd  0.37583269  0.46681516  0.76169222     1.37500
O475        O  0.38455295  0.45174620  0.74550749    -0.56600
O476        O  0.35030985  0.44504138  0.76718925    -0.55400
C477        C  0.39997569  0.49694821  0.77179741     0.78300
O478        O  0.36194558  0.45798499  0.78894741    -0.57800
O479        O  0.38952074  0.45410596  0.77176110    -0.56300
O480        O  0.37137350  0.46627887  0.73110549    -0.56200
O481        O  0.40260111  0.48740333  0.76444121    -0.55400
O482        O  0.46489050  0.36798472  0.74892781    -0.56600
C483        C  0.45218183  0.39227888  0.77747227     0.76000
O484        O  0.46209106  0.35631252  0.80332688    -0.57800
C485        C  0.46946220  0.35844626  0.74992462     0.76000
C486        C  0.49648565  0.39668410  0.78809173     0.78400
Cd487      Cd  0.46594815  0.37329984  0.77943652     1.37500
O488        O  0.44824270  0.38117461  0.76746367    -0.56600
O489        O  0.49214030  0.39352817  0.77312574    -0.55400
C490        C  0.44775138  0.34980854  0.80349542     0.78300
O491        O  0.48700728  0.38853945  0.79910759    -0.57800
O492        O  0.46212282  0.39434173  0.78811185    -0.56300
O493        O  0.47196742  0.35548579  0.76442893    -0.56200
O494        O  0.44175477  0.35388328  0.79239317    -0.55400
O495        O  0.27734740  0.37829379  0.89421346    -0.56600
C496        C  0.25679347  0.35800367  0.93426243     0.76000
O497        O  0.22629396  0.33984338  0.89838437    -0.57800
C498        C  0.27761839  0.37737492  0.87849420     0.76000
C499        C  0.26245665  0.32898320  0.89244008     0.78400
Cd500      Cd  0.25484804  0.35287787  0.89855097     1.37500
O501        O  0.26370072  0.36888162  0.92417585    -0.56600
O502        O  0.27025352  0.34050175  0.90159494    -0.55400
C503        C  0.22566883  0.35063767  0.89131031     0.78300
O504        O  0.25090233  0.32831825  0.88568685    -0.57800
O505        O  0.24892718  0.34486690  0.92789761    -0.56300
O506        O  0.26735718  0.36512474  0.87192228    -0.56200
O507        O  0.23822377  0.36184552  0.88699043    -0.55400
O508        O  0.35743662  0.26289891  0.92850643    -0.56600
C509        C  0.35872039  0.26979570  0.87881283     0.76000
O510        O  0.31950815  0.22434434  0.90384655    -0.57800
C511        C  0.34780185  0.25677885  0.94013548     0.76000
C512        C  0.32037585  0.26754669  0.90593559     0.78400
Cd513      Cd  0.33837513  0.25247045  0.90560734     1.37500
O514        O  0.36362177  0.27020844  0.89339141    -0.56600
O515        O  0.33205976  0.27160667  0.91468945    -0.55400
C516        C  0.32929401  0.22033355  0.90085858     0.78300
O517        O  0.31619717  0.25578267  0.89684950    -0.57800
O518        O  0.34464465  0.26104126  0.87653858    -0.56300
O519        O  0.33407756  0.24856211  0.93574048    -0.56200
O520        O  0.34287725  0.23102505  0.89945447    -0.55400
O521        O  0.89795687  0.36947449  0.25502890    -0.56600
C522        C  0.93169431  0.39007338  0.22036085     0.76000
O523        O  0.88713823  0.36387773  0.19881028    -0.57800
C524        C  0.88374491  0.36405462  0.25630214     0.76000
C525        C  0.89626968  0.40384571  0.22583624     0.78400
Cd526      Cd  0.89948742  0.37702860  0.22551051     1.37500
O527        O  0.92509084  0.38169660  0.23279154    -0.56600
O528        O  0.90418509  0.40160944  0.23627210    -0.55400
C529        C  0.88873537  0.35239821  0.20122496     0.78300
O530        O  0.88958083  0.39359427  0.21479454    -0.57800
O531        O  0.92347918  0.39247900  0.21051770    -0.56300
O532        O  0.87683903  0.36411557  0.24327620    -0.56200
O533        O  0.89446141  0.35202485  0.21502223    -0.55400
O534        O  0.08881195  0.45668212  0.25379812    -0.56600
C535        C  0.04924439  0.43937013  0.22931949     0.76000
O536        O  0.08432206  0.48448698  0.21251586    -0.57800
C537        C  0.10283111  0.46609381  0.25202927     0.76000
C538        C  0.08900136  0.44656787  0.19852098     0.78400
Cd539      Cd  0.08126000  0.46060406  0.22573898     1.37500
O540        O  0.05872290  0.44030478  0.24005603    -0.56600
O541        O  0.08345120  0.43997579  0.21219123    -0.55400
C542        C  0.08147633  0.48944295  0.22583026     0.78300
O543        O  0.09155752  0.46012592  0.19734881    -0.57800
O544        O  0.05454880  0.44817325  0.21695662    -0.56300
O545        O  0.10695644  0.47240855  0.23795386    -0.56200
O546        O  0.07871586  0.48125391  0.23856944    -0.55400
O547        O  0.08998386  0.34887375  0.07594652    -0.56600
C548        C  0.08981671  0.35918446  0.12689811     0.76000
O549        O  0.06255134  0.31089374  0.11307289    -0.57800
C550        C  0.08627039  0.33689334  0.06744491     0.76000
C551        C  0.11051552  0.33019284  0.10919063     0.78400
Cd552      Cd  0.08501221  0.33535237  0.10333294     1.37500
O553        O  0.09003417  0.36141800  0.11136652    -0.56600
O554        O  0.11240297  0.34289604  0.10436969    -0.55400
C555        C  0.05256355  0.31403246  0.10828786     0.78300
O556        O  0.09688749  0.31986789  0.11172496    -0.57800
O557        O  0.08769298  0.34629805  0.13129059    -0.56300
O558        O  0.08217928  0.32478893  0.07548683    -0.56200
O559        O  0.05751611  0.32688575  0.10148015    -0.55400
O560        O  0.89102424  0.26825140  0.11548492    -0.56600
C561        C  0.89656940  0.25502030  0.06915708     0.76000
O562        O  0.92540183  0.25224457  0.10987703    -0.57800
C563        C  0.89477940  0.26800618  0.13042688     0.76000
C564        C  0.87682402  0.21961074  0.10883606     0.78400
Cd565      Cd  0.90030908  0.25136536  0.10413994     1.37500
O566        O  0.89457519  0.26286272  0.08020490    -0.56600
O567        O  0.87390219  0.22999135  0.10512740    -0.55400
C568        C  0.93338165  0.26573354  0.10445396     0.78300
O569        O  0.89074408  0.22380607  0.11084687    -0.57800
O570        O  0.90001839  0.24533760  0.07426707    -0.56300
O571        O  0.90074316  0.25987152  0.13329947    -0.56200
O572        O  0.92616073  0.27200815  0.09921748    -0.55400
O573        O  0.91297213  0.37860170  0.74924715    -0.56600
C574        C  0.94331168  0.39676929  0.78350341     0.76000
O575        O  0.89496919  0.39406784  0.78942411    -0.57800
C576        C  0.89950327  0.37500760  0.74552467     0.76000
C577        C  0.90046305  0.35569414  0.79836903     0.78400
Cd578      Cd  0.91098785  0.38327167  0.77909888     1.37500
O579        O  0.93735877  0.39340062  0.76916222    -0.56600
O580        O  0.90167993  0.35585387  0.78270673    -0.55400
C581        C  0.90477536  0.40777129  0.78627540     0.78300
O582        O  0.90300202  0.36804942  0.80525534    -0.57800
O583        O  0.93434879  0.39368991  0.79570464    -0.56300
O584        O  0.89118842  0.37503656  0.75734250    -0.56200
O585        O  0.91729453  0.41000223  0.78042313    -0.55400
O586        O  0.07080591  0.44899309  0.76307419    -0.56600
C587        C  0.11307395  0.47199669  0.74839733     0.76000
O588        O  0.09724624  0.48815098  0.79730543    -0.57800
C589        C  0.06179402  0.45096397  0.77232577     0.76000
C590        C  0.09987096  0.45012212  0.80198562     0.78400
Cd591      Cd  0.09419483  0.46771798  0.77752988     1.37500
O592        O  0.09902744  0.46741341  0.74730336    -0.56600
O593        O  0.08921905  0.44394755  0.79149362    -0.55400
C594        C  0.09932074  0.49779274  0.78621670     0.78300
O595        O  0.10818254  0.46445026  0.80108288    -0.57800
O596        O  0.11844048  0.47421902  0.76298329    -0.56300
O597        O  0.06771863  0.46065513  0.78397876    -0.56200
O598        O  0.09940784  0.49369528  0.77131776    -0.55400
O599        O  0.09451514  0.36584335  0.89155773    -0.56600
C600        C  0.09272426  0.34894218  0.93778405     0.76000
O601        O  0.06747020  0.31553021  0.89566275    -0.57800
C602        C  0.09328936  0.36190110  0.87637533     0.76000
C603        C  0.11512962  0.33549360  0.89797286     0.78400
Cd604      Cd  0.08983817  0.34109929  0.90273317     1.37500
O605        O  0.09586561  0.35893217  0.92675077    -0.56600
O606        O  0.11700395  0.34877265  0.89956569    -0.55400
C607        C  0.05753814  0.31914935  0.89942521     0.78300
O608        O  0.10151362  0.32464380  0.89828169    -0.57800
O609        O  0.08843677  0.33555250  0.93260822    -0.56300
O610        O  0.09071788  0.34852236  0.87339226    -0.56200
O611        O  0.06251519  0.33260328  0.90478232    -0.55400
O612        O  0.90047223  0.26242682  0.93218893    -0.56600
C613        C  0.90009911  0.27892578  0.88591175     0.76000
O614        O  0.93109250  0.26063206  0.89300677    -0.57800
C615        C  0.90243772  0.25217794  0.93868557     0.76000
C616        C  0.88286600  0.22734826  0.89226540     0.78400
Cd617      Cd  0.90607070  0.25750756  0.90335137     1.37500
O618        O  0.89691332  0.27596562  0.90117369    -0.56600
O619        O  0.87976066  0.23708891  0.89824719    -0.55400
C620        C  0.93901487  0.27259919  0.90163192     0.78300
O621        O  0.89685553  0.23173569  0.89038177    -0.57800
O622        O  0.90566215  0.27169524  0.87850933    -0.56300
O623        O  0.90580780  0.24446575  0.92889472    -0.56200
O624        O  0.93177848  0.27721832  0.91047448    -0.55400
O625        O  0.72490691  0.62410117  0.09882652    -0.56600
C626        C  0.74133339  0.64550084  0.06011241     0.76000
O627        O  0.74121027  0.67628884  0.10153051    -0.57800
C628        C  0.72217603  0.62489391  0.11410191     0.76000
C629        C  0.77295498  0.66142134  0.10589272     0.78400
Cd630      Cd  0.74194425  0.65192907  0.09524938     1.37500
O631        O  0.73710872  0.63496988  0.07071848    -0.56600
O632        O  0.76170279  0.65510934  0.11562282    -0.55400
C633        C  0.72714322  0.67021986  0.09843492     0.78300
O634        O  0.77021178  0.66434099  0.09149101    -0.57800
O635        O  0.74579192  0.65878619  0.06578157    -0.56300
O636        O  0.72879723  0.63806838  0.12068331    -0.56200
O637        O  0.72049898  0.65637087  0.09416298    -0.55400
O638        O  0.62924461  0.72755046  0.10053953    -0.56600
C639        C  0.65032764  0.74638280  0.05966130     0.76000
O640        O  0.67030716  0.77548250  0.10846654    -0.57800
C641        C  0.62923353  0.72815662  0.11624120     0.76000
C642        C  0.67748955  0.73970678  0.09996819     0.78400
Cd643      Cd  0.65493763  0.74928528  0.09562550     1.37500
O644        O  0.63950217  0.74273973  0.06978577    -0.56600
O645        O  0.66369833  0.73038118  0.09677339    -0.55400
C646        C  0.66206398  0.78064387  0.10317995     0.78300
O647        O  0.68098013  0.75353797  0.10148594    -0.57800
O648        O  0.66337682  0.75164505  0.06601632    -0.56300
O649        O  0.64114682  0.73876785  0.12291138    -0.56200
O650        O  0.65055169  0.77136975  0.09486116    -0.55400
O651        O  0.63435357  0.53494754  0.26242673    -0.56600
C652        C  0.61707116  0.55425505  0.23932566     0.76000
O653        O  0.64138559  0.54159385  0.20425619    -0.57800
C654        C  0.64203869  0.52826724  0.26114178     0.76000
C655        C  0.60313335  0.50435532  0.22386725     0.78400
Cd656      Cd  0.62891793  0.53415499  0.23238360     1.37500
O657        O  0.62039200  0.54802968  0.25088844    -0.56600
O658        O  0.60158463  0.51555403  0.22811781    -0.55400
C659        C  0.65367794  0.55261585  0.20973968     0.78300
O660        O  0.61663936  0.50696273  0.22278763    -0.57800
O661        O  0.61926787  0.55124344  0.22455828    -0.56300
O662        O  0.64355447  0.52421294  0.24664619    -0.56200
O663        O  0.65456606  0.55461357  0.22531481    -0.55400
O664        O  0.54332209  0.63337308  0.26026936    -0.56600
C665        C  0.55824343  0.61354573  0.22792960     0.76000
O666        O  0.51469758  0.61314758  0.21577356    -0.57800
C667        C  0.53568587  0.64014174  0.26093511     0.76000
C668        C  0.55816941  0.65431760  0.20911995     0.78400
Cd669      Cd  0.54011911  0.62801442  0.23012662     1.37500
O670        O  0.55873494  0.62115665  0.24075473    -0.56600
O671        O  0.56166430  0.65327837  0.22390808    -0.55400
C672        C  0.51016715  0.60176201  0.22533889     0.78300
O673        O  0.54579063  0.64329240  0.20374952    -0.57800
O674        O  0.54960292  0.61283224  0.21629387    -0.56300
O675        O  0.53010330  0.64134621  0.24736763    -0.56200
O676        O  0.51913784  0.60289555  0.23677490    -0.55400
O677        O  0.74452514  0.65012404  0.92258113    -0.56600
C678        C  0.73512275  0.63970084  0.87136572     0.76000
O679        O  0.75305494  0.68704816  0.88656892    -0.57800
C680        C  0.75339966  0.66187702  0.93103714     0.76000
C681        C  0.78245234  0.66430749  0.89006945     0.78400
Cd682      Cd  0.75352817  0.66306880  0.89532403     1.37500
O683        O  0.73350735  0.63698658  0.88686947    -0.56600
O684        O  0.77032633  0.65262563  0.89456254    -0.55400
C685        C  0.73961570  0.68201604  0.89209760     0.78300
O686        O  0.78162225  0.67625124  0.88736353    -0.57800
O687        O  0.74517214  0.65300732  0.86711248    -0.56300
O688        O  0.76213388  0.67380601  0.92299054    -0.56200
O689        O  0.73339036  0.66901756  0.89874813    -0.55400
O690        O  0.63828066  0.73405967  0.88610813    -0.56600
C691        C  0.66345117  0.75535958  0.92992739     0.76000
O692        O  0.68907191  0.76145307  0.88377141    -0.57800
C693        C  0.64068794  0.73571496  0.87053022     0.76000
C694        C  0.66201682  0.78394441  0.88856903     0.78400
Cd695      Cd  0.66344435  0.75622952  0.89383898     1.37500
O696        O  0.65205547  0.74550547  0.92176832    -0.56600
O697        O  0.65083690  0.77144029  0.89316023    -0.55400
C698        C  0.68666317  0.74811969  0.88672395     0.78300
O699        O  0.67435040  0.78394703  0.88585948    -0.57800
O700        O  0.67438081  0.76535488  0.92149917    -0.56300
O701        O  0.65331005  0.74677449  0.86595576    -0.56200
O702        O  0.67376571  0.73885782  0.89269865    -0.55400
O703        O  0.62417595  0.53224608  0.75081386    -0.56600
C704        C  0.61055950  0.54728428  0.78465168     0.76000
O705        O  0.61572938  0.50134232  0.78210501    -0.57800
C706        C  0.63413613  0.52876144  0.74691768     0.76000
C707        C  0.65045802  0.54601535  0.80404416     0.78400
Cd708      Cd  0.62520312  0.52936383  0.78104037     1.37500
O709        O  0.61772968  0.54775825  0.77149694    -0.56600
O710        O  0.64934551  0.55151294  0.79042515    -0.55400
C711        C  0.60205533  0.49747722  0.78520450     0.78300
O712        O  0.64037952  0.53233912  0.80680682    -0.57800
O713        O  0.61005784  0.53845668  0.79600267    -0.56300
O714        O  0.64031543  0.52576322  0.75883169    -0.56200
O715        O  0.59927944  0.50824332  0.78729635    -0.55400
O716        O  0.54395325  0.60778991  0.76222198    -0.56600
C717        C  0.53563664  0.63778507  0.74728992     0.76000
O718        O  0.50736895  0.60591925  0.77447329    -0.57800
C719        C  0.55239796  0.60735404  0.77342590     0.76000
C720        C  0.55087749  0.64769522  0.80242227     0.78400
Cd721      Cd  0.53538737  0.62303390  0.77822398     1.37500
O722        O  0.54385656  0.63187359  0.74969810    -0.56600
O723        O  0.55748296  0.64565398  0.79011449    -0.55400
C724        C  0.50580050  0.59673994  0.78592139     0.78300
O725        O  0.53671685  0.63858075  0.80352682    -0.57800
O726        O  0.52730438  0.63728927  0.75937674    -0.56300
O727        O  0.55305468  0.61416878  0.78696112    -0.56200
O728        O  0.51747990  0.60027539  0.79451390    -0.55400
O729        O  0.89683960  0.53894385  0.24530119    -0.56600
C730        C  0.93096398  0.55019484  0.21205397     0.76000
O731        O  0.88794475  0.51052971  0.19862195    -0.57800
C732        C  0.88254772  0.53300344  0.24609358     0.76000
C733        C  0.89120698  0.55255927  0.19216708     0.78400
Cd734      Cd  0.89824446  0.53489858  0.21500252     1.37500
O735        O  0.92467482  0.55129784  0.22525933    -0.56600
O736        O  0.90045008  0.55863604  0.20408994    -0.55400
C737        C  0.89103616  0.50358990  0.20958105     0.78300
O738        O  0.88468470  0.53816807  0.19104363    -0.57800
O739        O  0.92221845  0.54220167  0.20042414    -0.56300
O740        O  0.87547565  0.52852355  0.23243446    -0.56200
O741        O  0.89703053  0.51096273  0.22281158    -0.55400
O742        O  0.05913339  0.61536824  0.23547742    -0.56600
C743        C  0.10341209  0.63603175  0.24546253     0.76000
O744        O  0.08802834  0.60453777  0.20093595    -0.57800
C745        C  0.04958426  0.60804813  0.22416596     0.76000
C746        C  0.08777615  0.64483752  0.19455009     0.78400
Cd747      Cd  0.08183627  0.62119408  0.21864441     1.37500
O748        O  0.08922658  0.62981824  0.24769695    -0.56600
O749        O  0.08318383  0.64508892  0.20916965    -0.55400
C750        C  0.08440725  0.59429072  0.21177757     0.78300
O751        O  0.08998167  0.63387037  0.19107007    -0.57800
O752        O  0.10776976  0.63575242  0.23072987    -0.56300
O753        O  0.05490459  0.60685222  0.21030077    -0.56200
O754        O  0.07978289  0.59654442  0.22558821    -0.55400
O755        O  0.09131279  0.73486757  0.11518442    -0.56600
C756        C  0.09083614  0.75655133  0.07084769     0.76000
O757        O  0.06886092  0.76321049  0.11508562    -0.57800
C758        C  0.09110460  0.73710747  0.13073506     0.76000
C759        C  0.11840415  0.78525766  0.11245788     0.78400
Cd760      Cd  0.08950128  0.75751734  0.10682503     1.37500
O761        O  0.09193921  0.74674095  0.07952081    -0.56600
O762        O  0.11720084  0.77273845  0.10780904    -0.55400
C763        C  0.05807494  0.74985086  0.11191619     0.78300
O764        O  0.10605188  0.78524818  0.11507590    -0.57800
O765        O  0.08888285  0.76630669  0.07873202    -0.56300
O766        O  0.09036093  0.74876596  0.13513845    -0.56200
O767        O  0.06189994  0.74042390  0.10664832    -0.55400
O768        O  0.89859145  0.64106046  0.10688724    -0.56600
C769        C  0.90465811  0.66626502  0.06214388     0.76000
O770        O  0.89630743  0.68509451  0.10468665    -0.57800
C771        C  0.89971714  0.64413429  0.12236500     0.76000
C772        C  0.93916042  0.68448062  0.10206990     0.78400
Cd773      Cd  0.90633910  0.66752681  0.09809357     1.37500
O774        O  0.90103794  0.65418433  0.07021646    -0.56600
O775        O  0.93191807  0.67163956  0.09495418    -0.55400
C776        C  0.88241747  0.67477451  0.10437705     0.78300
O777        O  0.93129261  0.69011134  0.10774935    -0.57800
O778        O  0.90863370  0.67823644  0.07063234    -0.56300
O779        O  0.90338478  0.65766191  0.12640149    -0.56200
O780        O  0.87973337  0.66128725  0.10180276    -0.55400
O781        O  0.92787888  0.55577525  0.74832625    -0.56600
C782        C  0.95568979  0.56258492  0.77964682     0.76000
O783        O  0.90713744  0.54800206  0.80054178    -0.57800
C784        C  0.91410438  0.54904303  0.74396731     0.76000
C785        C  0.91675067  0.51676705  0.78690508     0.78400
Cd786      Cd  0.92316370  0.54700633  0.77745744     1.37500
O787        O  0.94771144  0.56518047  0.78985821    -0.56600
O788        O  0.92573641  0.52867312  0.79488173    -0.55400
C789        C  0.91193379  0.56214564  0.79933773     0.78300
O790        O  0.90970004  0.51847215  0.77493287    -0.57800
O791        O  0.94867080  0.55299215  0.76815804    -0.56300
O792        O  0.90442416  0.54136758  0.75507343    -0.56200
O793        O  0.92125172  0.56898634  0.78768625    -0.55400
O794        O  0.12674724  0.65128374  0.75718257    -0.56600
C795        C  0.07303566  0.61484418  0.76680398     0.76000
O796        O  0.10048523  0.60631763  0.78419017    -0.57800
C797        C  0.12111422  0.64629964  0.74293619     0.76000
C798        C  0.10956746  0.65334989  0.79884842     0.78400
Cd799      Cd  0.10515304  0.63109245  0.77300220     1.37500
O800        O  0.07860105  0.61394955  0.78052462    -0.56600
O801        O  0.11812219  0.64761863  0.79779490    -0.55400
C802        C  0.11265827  0.60725784  0.77891927     0.78300
O803        O  0.09926909  0.64900342  0.78799499    -0.57800
O804        O  0.08234828  0.62321230  0.75575680    -0.56300
O805        O  0.10800294  0.63461633  0.74260438    -0.56200
O806        O  0.12184968  0.61956029  0.77183159    -0.55400
O807        O  0.08915535  0.72139358  0.89913143    -0.56600
C808        C  0.09741975  0.74349196  0.94192989     0.76000
O809        O  0.11347065  0.77664341  0.90165004    -0.57800
C810        C  0.09675837  0.72424723  0.88579114     0.76000
C811        C  0.06804344  0.74478987  0.89669046     0.78400
Cd812      Cd  0.09721680  0.74822051  0.90644529     1.37500
O813        O  0.09903976  0.73492113  0.93152856    -0.56600
O814        O  0.07878209  0.74879994  0.88631649    -0.55400
C815        C  0.12594981  0.77680130  0.90337869     0.78300
O816        O  0.07115435  0.74362073  0.91162100    -0.57800
O817        O  0.09559820  0.75398967  0.93593746    -0.56300
O818        O  0.10494531  0.73818831  0.88213042    -0.56200
O819        O  0.12500084  0.76407107  0.90598944    -0.55400
O820        O  0.91137336  0.64592601  0.88676307    -0.56600
C821        C  0.91161847  0.66148851  0.93223422     0.76000
O822        O  0.93918863  0.69709432  0.90202812    -0.57800
C823        C  0.91244794  0.64955807  0.87154622     0.76000
C824        C  0.89214712  0.67704671  0.88982029     0.78400
Cd825      Cd  0.91666803  0.67110344  0.89763045     1.37500
O826        O  0.91297757  0.65342843  0.92095713    -0.56600
O827        O  0.88989305  0.66460796  0.89590752    -0.55400
C828        C  0.94905293  0.69391204  0.89676515     0.78300
O829        O  0.90586814  0.68694162  0.88697353    -0.57800
O830        O  0.91269581  0.67389142  0.92757513    -0.56300
O831        O  0.91521589  0.66294779  0.86847026    -0.56200
O832        O  0.94403736  0.68044080  0.89149640    -0.55400
O833        O  0.83054874  0.47452077  0.40659160    -0.56600
C834        C  0.81276094  0.49898141  0.40640550     0.76000
O835        O  0.84369512  0.51442894  0.43331748    -0.57800
C836        C  0.84272089  0.47426687  0.40391713     0.76000
C837        C  0.85480177  0.51706144  0.37372238     0.78400
Cd838      Cd  0.84256986  0.50258576  0.40559784     1.37500
O839        O  0.81501801  0.48805687  0.40967923    -0.56600
O840        O  0.84364518  0.50369215  0.37492415    -0.55400
C841        C  0.85551575  0.51456630  0.43833840     0.78300
O842        O  0.86039531  0.52405237  0.38731112    -0.57800
O843        O  0.82432483  0.51164324  0.40277783    -0.56300
O844        O  0.85466860  0.48699750  0.40209599    -0.56200
O845        O  0.86210479  0.51045333  0.42784569    -0.55400
O846        O  0.80222926  0.32340748  0.40546587    -0.56600
C847        C  0.82519558  0.36380363  0.40983723     0.76000
O848        O  0.84819661  0.35188074  0.43190007    -0.57800
C849        C  0.80081895  0.31028750  0.40585722     0.76000
C850        C  0.84757360  0.34000224  0.38057490     0.78400
Cd851      Cd  0.82967990  0.33789776  0.40964206     1.37500
O852        O  0.81831655  0.35297564  0.41996687    -0.56600
O853        O  0.83461889  0.33883916  0.37992666    -0.55400
C854        C  0.84258004  0.34125097  0.44242500     0.78300
O855        O  0.85238145  0.33955579  0.39495468    -0.57800
O856        O  0.83387810  0.36251310  0.39940875    -0.56300
O857        O  0.81287497  0.30969644  0.40790483    -0.56200
O858        O  0.83185212  0.32855266  0.43737515    -0.55400
O859        O  0.81291569  0.49867589  0.59968066    -0.56600
C860        C  0.84117704  0.48199862  0.60191006     0.76000
O861        O  0.85674974  0.53078746  0.58036025    -0.57800
C862        C  0.81297520  0.51121450  0.59937253     0.76000
C863        C  0.85260834  0.52157319  0.63334753     0.78400
Cd864      Cd  0.84066305  0.51011844  0.60060362     1.37500
O865        O  0.82877194  0.48202828  0.60046312    -0.56600
O866        O  0.83916837  0.51100655  0.63078939    -0.55400
C867        C  0.85300420  0.52177694  0.56797371     0.78300
O868        O  0.86082432  0.52754703  0.62057649    -0.57800
O869        O  0.85318108  0.49486651  0.60268884    -0.56300
O870        O  0.82581462  0.52322830  0.59960304    -0.56200
O871        O  0.84431309  0.50779347  0.57094928    -0.55400
O872        O  0.79556295  0.32877977  0.59377503    -0.56600
C873        C  0.82059696  0.36968860  0.60241675     0.76000
O874        O  0.84313516  0.34703446  0.62270948    -0.57800
C875        C  0.79212548  0.31603343  0.59997121     0.76000
C876        C  0.83542968  0.33921441  0.57193799     0.78400
Cd877      Cd  0.82215193  0.34210590  0.60276312     1.37500
O878        O  0.80882495  0.35665489  0.60243919    -0.56600
O879        O  0.83303450  0.35010582  0.57494857    -0.55400
C880        C  0.83484839  0.34414453  0.63555795     0.78300
O881        O  0.83284708  0.33004779  0.58375448    -0.57800
O882        O  0.83325806  0.37008176  0.60276451    -0.56300
O883        O  0.80260778  0.31520392  0.60749201    -0.56200
O884        O  0.82105849  0.33996829  0.63308533    -0.55400
O885        O  0.65481362  0.19617440  0.59917667    -0.56600
C886        C  0.69542311  0.20771681  0.60275724     0.76000
O887        O  0.66002602  0.15546012  0.61185089    -0.57800
C888        C  0.64127285  0.18524514  0.59847217     0.76000
C889        C  0.67004221  0.17103401  0.56423865     0.78400
Cd890      Cd  0.66671338  0.18007124  0.59790248     1.37500
O891        O  0.68396902  0.20799988  0.59711555    -0.56600
O892        O  0.65892209  0.17268741  0.56835357    -0.55400
C893        C  0.66081773  0.16036715  0.62658486     0.78300
O894        O  0.67913328  0.17267298  0.57577270    -0.57800
O895        O  0.69358855  0.19475817  0.60627844    -0.56300
O896        O  0.63948448  0.17194096  0.59750884    -0.56200
O897        O  0.66427089  0.17417907  0.62802545    -0.55400
O898        O  0.65125689  0.17830554  0.41046372    -0.56600
C899        C  0.70397161  0.20141372  0.39927862     0.76000
O900        O  0.65930423  0.15744892  0.42286132    -0.57800
C901        C  0.65044136  0.18518242  0.39780584     0.76000
C902        C  0.66787591  0.15503978  0.37309797     0.78400
Cd903      Cd  0.67323357  0.17606013  0.40051250     1.37500
O904        O  0.69277933  0.20325013  0.40254406    -0.56600
O905        O  0.66846809  0.16770248  0.37129438    -0.55400
C906        C  0.66931314  0.16439460  0.43392164     0.78300
O907        O  0.66987566  0.15186353  0.38773062    -0.57800
O908        O  0.70098668  0.18789304  0.39637352    -0.56300
O909        O  0.66028595  0.18813479  0.38659155    -0.56200
O910        O  0.68148767  0.17598212  0.42922749    -0.55400
O911        O  0.54749578  0.20115886  0.41930084    -0.56600
C912        C  0.51707779  0.21326155  0.40694671     0.76000
O913        O  0.50449687  0.16603460  0.38825889    -0.57800
C914        C  0.55267994  0.19460108  0.41008060     0.76000
C915        C  0.50800811  0.16996014  0.43754279     0.78400
Cd916      Cd  0.52136254  0.18724341  0.40752067     1.37500
O917        O  0.53019542  0.21472209  0.40772433    -0.56600
O918        O  0.50695385  0.18151305  0.43389346    -0.55400
C919        C  0.51015141  0.17377216  0.37516746     0.78300
O920        O  0.51428478  0.16568385  0.42681220    -0.57800
O921        O  0.50594291  0.19978325  0.40657855    -0.56300
O922        O  0.54356720  0.18506793  0.39961841    -0.56200
O923        O  0.52050676  0.18744070  0.37717382    -0.55400
O924        O  0.51484915  0.20010683  0.60566053    -0.56600
C925        C  0.53170990  0.17151697  0.60382599     0.76000
O926        O  0.48731980  0.14884682  0.61731017    -0.57800
C927        C  0.50254698  0.20002860  0.60278355     0.76000
C928        C  0.49478823  0.16293920  0.56631190     0.78400
Cd929      Cd  0.50391645  0.17225449  0.60056024     1.37500
O930        O  0.53199425  0.18385877  0.60035735    -0.56600
O931        O  0.48501495  0.15826609  0.57791647    -0.55400
C932        C  0.48878433  0.15617793  0.63072573     0.78300
O933        O  0.50847352  0.17126154  0.57064619    -0.57800
O934        O  0.51879075  0.15989943  0.60596600    -0.56300
O935        O  0.49118856  0.18731920  0.59891643    -0.56200
O936        O  0.49646466  0.17054183  0.62985436    -0.55400
C937        C  0.49812812  0.16114374  0.51856140     0.19900
C938        C  0.50798088  0.15907985  0.50793305    -0.18200
C939        C  0.50715005  0.16012719  0.49067975    -0.10500
C940        C  0.49651477  0.16347521  0.48363922     0.22100
C941        C  0.48636761  0.16513899  0.49423681    -0.19800
C942        C  0.48705884  0.16386564  0.51153577    -0.10700
C943        C  0.49728598  0.16746299  0.46574935    -0.14800
C944        C  0.50323318  0.16247312  0.45389651    -0.28700
C945        C  0.50106423  0.16236147  0.53676698    -0.03000
C946        C  0.49048322  0.15937479  0.54857627    -0.39500
H947        H  0.51674132  0.15718613  0.51304532     0.13300
H948        H  0.51548538  0.15924367  0.48303060     0.12900
H949        H  0.47824147  0.16797551  0.48915076     0.12300
H950        H  0.47953224  0.16589345  0.51937325     0.12600
H951        H  0.49386473  0.17571351  0.46248107     0.15300
H952        H  0.50602885  0.15369135  0.45670420     0.14100
H953        H  0.51266549  0.16616253  0.54060591     0.11800
H954        H  0.47864063  0.15467779  0.54520416     0.13800
C955        C  0.58905328  0.19236475  0.40285783     0.19900
C956        C  0.59596651  0.19022543  0.38870986    -0.18200
C957        C  0.60902933  0.18902958  0.39013258    -0.10500
C958        C  0.61546491  0.18987438  0.40584449     0.22100
C959        C  0.60864526  0.19218572  0.42000232    -0.19800
C960        C  0.59561874  0.19350461  0.41855686    -0.10700
C961        C  0.62846760  0.18717127  0.40800597    -0.14800
C962        C  0.63849220  0.18928131  0.39582763    -0.28700
C963        C  0.57418400  0.19163560  0.40087392    -0.03000
C964        C  0.56838294  0.19754877  0.41180658    -0.39500
H965        H  0.59100184  0.18907955  0.37650579     0.13300
H966        H  0.61360658  0.18678431  0.37896076     0.12900
H967        H  0.61324425  0.19266818  0.43227113     0.12300
H968        H  0.59037929  0.19471917  0.42979772     0.12600
H969        H  0.62979515  0.18323893  0.42009522     0.15300
H970        H  0.63794037  0.19400482  0.38395965     0.14100
H971        H  0.56757039  0.18567753  0.38992044     0.11800
H972        H  0.57501928  0.20430318  0.42236491     0.13800
C973        C  0.67269506  0.16597708  0.48178509     0.19900
C974        C  0.68469456  0.17248452  0.49325855    -0.18200
C975        C  0.68184475  0.17223839  0.51036721    -0.10500
C976        C  0.66684730  0.16554293  0.51641076     0.22100
C977        C  0.65484627  0.15898220  0.50494773    -0.19800
C978        C  0.65769072  0.15911633  0.48784708    -0.10700
C979        C  0.66337619  0.16644078  0.53431156    -0.14800
C980        C  0.67280078  0.16802836  0.54686080    -0.28700
C981        C  0.67629389  0.16807622  0.46365739    -0.03000
C982        C  0.66643105  0.15971287  0.45155559    -0.39500
H983        H  0.69636082  0.17811554  0.48893170     0.13300
H984        H  0.69143199  0.17787265  0.51870000     0.12900
H985        H  0.64320055  0.15398792  0.50922382     0.12300
H986        H  0.64811521  0.15443249  0.47945266     0.12600
H987        H  0.65270153  0.16600606  0.53722926     0.15300
H988        H  0.68317058  0.16775841  0.54433988     0.14100
H989        H  0.68737472  0.17744555  0.46013209     0.11800
H990        H  0.65550891  0.14994769  0.45464511     0.13800
C991        C  0.57324431  0.18012156  0.60076711     0.19900
C992        C  0.58749014  0.19335066  0.59918788    -0.18200
C993        C  0.60082777  0.19250812  0.59859369    -0.10500
C994        C  0.60019621  0.17830373  0.59956289     0.22100
C995        C  0.58593978  0.16509120  0.60104516    -0.19800
C996        C  0.57263826  0.16592849  0.60157949    -0.10700
C997        C  0.61387433  0.17649027  0.59883369    -0.14800
C998        C  0.62833641  0.18804484  0.59884145    -0.28700
C999        C  0.55934843  0.18157798  0.60074389    -0.03000
C1000       C  0.54550275  0.17027894  0.60517975    -0.39500
H1001       H  0.58831077  0.20441912  0.59833330     0.13300
H1002       H  0.61146148  0.20301882  0.59720031     0.12900
H1003       H  0.58504944  0.15397894  0.60166205     0.12300
H1004       H  0.56198852  0.15533546  0.60225242     0.12600
H1005       H  0.61189557  0.16489261  0.59853551     0.15300
H1006       H  0.63097367  0.19980968  0.59941693     0.14100
H1007       H  0.56055071  0.19236732  0.59677849     0.11800
H1008       H  0.54390425  0.15950451  0.60961656     0.13800
C1009       C  0.72800533  0.24943136  0.60208065     0.19900
C1010       C  0.73219423  0.26134017  0.59074177    -0.18200
C1011       C  0.74653419  0.27443387  0.59159694    -0.10500
C1012       C  0.75689531  0.27598229  0.60408444     0.22100
C1013       C  0.75255239  0.26418285  0.61560960    -0.19800
C1014       C  0.73825228  0.25108553  0.61470841    -0.10700
C1015       C  0.77245120  0.28940351  0.60527658    -0.14800
C1016       C  0.77660768  0.30297287  0.59836243    -0.28700
C1017       C  0.71291124  0.23546400  0.60040098    -0.03000
C1018       C  0.71025471  0.22163131  0.60514569    -0.39500
H1019       H  0.72447833  0.26034117  0.58092293     0.13300
H1020       H  0.74950308  0.28305826  0.58221378     0.12900
H1021       H  0.76026361  0.26511196  0.62539924     0.12300
H1022       H  0.73523924  0.24235788  0.62399433     0.12600
H1023       H  0.78074071  0.28816555  0.61257572     0.15300
H1024       H  0.76846358  0.30482858  0.59163287     0.14100
H1025       H  0.70395943  0.23645830  0.59422438     0.11800
H1026       H  0.71931616  0.22027496  0.61040945     0.13800
C1027       C  0.83016613  0.43952661  0.60219811     0.19900
C1028       C  0.81797259  0.42611901  0.59564401    -0.18200
C1029       C  0.81822454  0.41241934  0.59564241    -0.10500
C1030       C  0.83065185  0.41181340  0.60244145     0.22100
C1031       C  0.84279474  0.42519252  0.60904692    -0.19800
C1032       C  0.84253043  0.43886265  0.60908757    -0.10700
C1033       C  0.83156663  0.39761038  0.60262245    -0.14800
C1034       C  0.81933739  0.38356146  0.60192954    -0.28700
C1035       C  0.82951305  0.45389150  0.60178576    -0.03000
C1036       C  0.84192718  0.46784118  0.60264638    -0.39500
H1037       H  0.80831160  0.42629316  0.59027413     0.13300
H1038       H  0.80880469  0.40246825  0.59002216     0.12900
H1039       H  0.85247444  0.42503273  0.61439649     0.12300
H1040       H  0.85194761  0.44876136  0.61476283     0.12600
H1041       H  0.84273586  0.39877163  0.60404481     0.15300
H1042       H  0.80798936  0.38202280  0.60134233     0.14100
H1043       H  0.81846671  0.45295444  0.60009532     0.11800
H1044       H  0.85315265  0.46912795  0.60354523     0.13800
C1045       C  0.84293779  0.34278522  0.52462325     0.19900
C1046       C  0.84698252  0.35459657  0.51317272    -0.18200
C1047       C  0.84700889  0.35194053  0.49607423    -0.10500
C1048       C  0.84289754  0.33730117  0.48997352     0.22100
C1049       C  0.83910469  0.32552677  0.50141760    -0.19800
C1050       C  0.83918259  0.32821532  0.51857502    -0.10700
C1051       C  0.84067409  0.33361112  0.47186656    -0.14800
C1052       C  0.84772437  0.34408252  0.45990655    -0.28700
C1053       C  0.84114575  0.34582252  0.54241299    -0.03000
C1054       C  0.84012808  0.33685320  0.55522315    -0.39500
H1055       H  0.84967650  0.36586263  0.51745194     0.13300
H1056       H  0.84949011  0.36121058  0.48770564     0.12900
H1057       H  0.83564786  0.31409370  0.49703573     0.12300
H1058       H  0.83559990  0.31869113  0.52690673     0.12600
H1059       H  0.83226893  0.32203843  0.46831030     0.15300
H1060       H  0.85657678  0.35553148  0.46316582     0.14100
H1061       H  0.83995272  0.35574507  0.54497941     0.11800
H1062       H  0.84166739  0.32708868  0.55329984     0.13800
C1063       C  0.73873183  0.24215287  0.40265604     0.19900
C1064       C  0.74045056  0.25612616  0.40819388    -0.18200
C1065       C  0.75477834  0.26918362  0.40899213    -0.10500
C1066       C  0.76782873  0.26864973  0.40407879     0.22100
C1067       C  0.76618610  0.25468419  0.39865767    -0.19800
C1068       C  0.75181331  0.24158276  0.39782719    -0.10700
C1069       C  0.78328084  0.28231758  0.40498028    -0.14800
C1070       C  0.78568494  0.29662533  0.40419384    -0.28700
C1071       C  0.72309479  0.22866767  0.40223166    -0.03000
C1072       C  0.71975862  0.21424501  0.39897237    -0.39500
H1073       H  0.73064644  0.25693624  0.41210544     0.13300
H1074       H  0.75555072  0.27956263  0.41380879     0.12900
H1075       H  0.77606059  0.25393735  0.39490190     0.12300
H1076       H  0.75114778  0.23118394  0.39331831     0.12600
H1077       H  0.79295214  0.28054750  0.40602411     0.15300
H1078       H  0.77623873  0.29858527  0.40227798     0.14100
H1079       H  0.71378663  0.23071829  0.40508981     0.11800
H1080       H  0.72859994  0.21152272  0.39632384     0.13800
C1081       C  0.85824574  0.52065201  0.52056919     0.19900
C1082       C  0.86199533  0.51191235  0.50997290    -0.18200
C1083       C  0.86131373  0.51287877  0.49267542    -0.10500
C1084       C  0.85665384  0.52252033  0.48554264     0.22100
C1085       C  0.85314230  0.53147238  0.49614060    -0.19800
C1086       C  0.85406724  0.53068418  0.51348961    -0.10700
C1087       C  0.85365894  0.52206383  0.46734952    -0.14800
C1088       C  0.86090060  0.51830781  0.45574579    -0.28700
C1089       C  0.85661760  0.51728972  0.53866960    -0.03000
C1090       C  0.85786123  0.52716532  0.55075852    -0.39500
H1091       H  0.86496913  0.50388710  0.51512444     0.13300
H1092       H  0.86363256  0.50543282  0.48499384     0.12900
H1093       H  0.84926730  0.53879089  0.49098055     0.12300
H1094       H  0.85068404  0.53725933  0.52129388     0.12600
H1095       H  0.84469756  0.52425316  0.46347702     0.15300
H1096       H  0.87034580  0.51678908  0.45930507     0.14100
H1097       H  0.85371653  0.50578845  0.54216358     0.11800
H1098       H  0.86173349  0.53901530  0.54789513     0.13800
C1099       C  0.83097583  0.43169919  0.40332019     0.19900
C1100       C  0.81910219  0.41858404  0.41060410    -0.18200
C1101       C  0.81882368  0.40465094  0.40963374    -0.10500
C1102       C  0.83049447  0.40356376  0.40131013     0.22100
C1103       C  0.84213255  0.41658819  0.39362277    -0.19800
C1104       C  0.84240254  0.43050515  0.39458133    -0.10700
C1105       C  0.83097204  0.38915044  0.40020257    -0.14800
C1106       C  0.82331665  0.37730715  0.41052107    -0.28700
C1107       C  0.83076587  0.44624345  0.40462349    -0.03000
C1108       C  0.84323093  0.46000671  0.40281504    -0.39500
H1109       H  0.81001665  0.41913112  0.41714011     0.13300
H1110       H  0.80934829  0.39481388  0.41524455     0.12900
H1111       H  0.85112878  0.41602156  0.38690160     0.12300
H1112       H  0.85144580  0.44016654  0.38821941     0.12600
H1113       H  0.83861184  0.38859073  0.39103645     0.15300
H1114       H  0.81606353  0.37766546  0.42026068     0.14100
H1115       H  0.82000954  0.44560503  0.40761200     0.11800
H1116       H  0.85424736  0.46103553  0.40062644     0.13800
C1117       C  0.99282125  0.71293742  0.89257872     0.19900
C1118       C  0.00294891  0.71304209  0.88049123    -0.18200
C1119       C  0.01870608  0.72132929  0.88308954    -0.10500
C1120       C  0.02468219  0.72952569  0.89802968     0.22100
C1121       C  0.01454625  0.72958940  0.90997453    -0.19800
C1122       C  0.99883629  0.72149233  0.90728071    -0.10700
C1123       C  0.04107110  0.73650808  0.90251027    -0.14800
C1124       C  0.05250314  0.74079704  0.89142199    -0.28700
C1125       C  0.97613359  0.70266445  0.89030911    -0.03000
C1126       C  0.96552020  0.70522793  0.89739925    -0.39500
H1127       H  0.99862997  0.70639390  0.86914562     0.13300
H1128       H  0.02606720  0.72064213  0.87375171     0.12900
H1129       H  0.01878844  0.73559355  0.92169663     0.12300
H1130       H  0.99143207  0.72136661  0.91709794     0.12600
H1131       H  0.04376041  0.73765045  0.91570826     0.15300
H1132       H  0.05030280  0.74045351  0.87818015     0.14100
H1133       H  0.97247080  0.69250171  0.88266966     0.11800
H1134       H  0.96894774  0.71576275  0.90420840     0.13800
C1135       C  0.10387527  0.70197432  0.85082166     0.19900
C1136       C  0.11702654  0.70347251  0.84319727    -0.18200
C1137       C  0.11619833  0.69227568  0.83215074    -0.10500
C1138       C  0.10209400  0.67943602  0.82825208     0.22100
C1139       C  0.08891724  0.67805818  0.83570059    -0.19800
C1140       C  0.08977651  0.68912479  0.84694857    -0.10700
C1141       C  0.10056674  0.66788511  0.81561306    -0.14800
C1142       C  0.11159473  0.66459461  0.81196019    -0.28700
C1143       C  0.10511018  0.71435222  0.86203040    -0.03000
C1144       C  0.09572080  0.71180007  0.87504068    -0.39500
H1145       H  0.12799612  0.71337811  0.84578059     0.13300
H1146       H  0.12654050  0.69396360  0.82630096     0.12900
H1147       H  0.07788203  0.66841218  0.83271183     0.12300
H1148       H  0.07935820  0.68781939  0.85220301     0.12600
H1149       H  0.08970127  0.66154381  0.80929117     0.15300
H1150       H  0.12215052  0.66992761  0.81891356     0.14100
H1151       H  0.11435557  0.72586350  0.85980891     0.11800
H1152       H  0.08706365  0.70022994  0.87805865     0.13800
C1153       C  0.87829747  0.53940004  0.67183663     0.19900
C1154       C  0.89396064  0.54583217  0.67449189    -0.18200
C1155       C  0.89977096  0.54750671  0.69062198    -0.10500
C1156       C  0.88996837  0.54288275  0.70452756     0.22100
C1157       C  0.87439490  0.53704834  0.70186934    -0.19800
C1158       C  0.86861576  0.53542985  0.68578925    -0.10700
C1159       C  0.89516977  0.54313259  0.72189121    -0.14800
C1160       C  0.90978376  0.55006458  0.72671041    -0.28700
C1161       C  0.87246301  0.53650232  0.65442155    -0.03000
C1162       C  0.85807975  0.52602756  0.65056293    -0.39500
H1163       H  0.90170276  0.54911670  0.66399805     0.13300
H1164       H  0.91182957  0.55196541  0.69194941     0.12900
H1165       H  0.86658270  0.53353949  0.71231294     0.12300
H1166       H  0.85655401  0.53101356  0.68446034     0.12600
H1167       H  0.88642220  0.53711409  0.73122471     0.15300
H1168       H  0.91890039  0.55658546  0.71799803     0.14100
H1169       H  0.88050414  0.54228370  0.64439607     0.11800
H1170       H  0.85003315  0.51954122  0.66027905     0.13800
C1171       C  0.02986816  0.59067483  0.77392497     0.19900
C1172       C  0.02094698  0.58721175  0.78837452    -0.18200
C1173       C  0.00515129  0.58008246  0.78733814    -0.10500
C1174       C  0.99791956  0.57617742  0.77174465     0.22100
C1175       C  0.00679138  0.57922741  0.75730317    -0.19800
C1176       C  0.02262568  0.58647081  0.75833134    -0.10700
C1177       C  0.98116579  0.56850247  0.77016354    -0.14800
C1178       C  0.97230522  0.57033925  0.78136312    -0.28700
C1179       C  0.04660611  0.59832828  0.77578088    -0.03000
C1180       C  0.05652529  0.60671183  0.76380873    -0.39500
H1181       H  0.02623619  0.59011293  0.80054566     0.13300
H1182       H  0.99866674  0.57741821  0.79877747     0.12900
H1183       H  0.00144834  0.57608267  0.74516896     0.12300
H1184       H  0.02906988  0.58849854  0.74694134     0.12600
H1185       H  0.97602377  0.56158276  0.75910214     0.15300
H1186       H  0.97728920  0.57789101  0.79200128     0.14100
H1187       H  0.05094974  0.59766559  0.78789183     0.11800
H1188       H  0.05258284  0.60818761  0.75182931     0.13800
C1189       C  0.90863467  0.61465945  0.84715725     0.19900
C1190       C  0.90231903  0.59902736  0.85036171    -0.18200
C1191       C  0.90335665  0.58926961  0.83858873    -0.10500
C1192       C  0.91082178  0.59499076  0.82327732     0.22100
C1193       C  0.91696990  0.61058789  0.82003661    -0.19800
C1194       C  0.91594242  0.62031388  0.83177810    -0.10700
C1195       C  0.91344692  0.58555853  0.81075561    -0.14800
C1196       C  0.90727410  0.57028441  0.81127519    -0.28700
C1197       C  0.90842039  0.62484721  0.86056941    -0.03000
C1198       C  0.91098595  0.63905743  0.85787091    -0.39500
H1199       H  0.89677487  0.59437849  0.86216309     0.13300
H1200       H  0.89866024  0.57742337  0.84182979     0.12900
H1201       H  0.92293607  0.61538282  0.80846507     0.12300
H1202       H  0.92141020  0.63231317  0.82889498     0.12600
H1203       H  0.92130879  0.59167799  0.80068908     0.15300
H1204       H  0.89919640  0.56360499  0.82087772     0.14100
H1205       H  0.90632358  0.62055010  0.87323087     0.11800
H1206       H  0.91242213  0.64342664  0.84532319     0.13800
C1207       C  0.90476036  0.66134612  0.97987281     0.19900
C1208       C  0.90031737  0.66977396  0.99009086    -0.18200
C1209       C  0.89896271  0.66765872  0.00730545    -0.10500
C1210       C  0.90225492  0.65716508  0.01489760     0.22100
C1211       C  0.90617913  0.64830666  0.00467274    -0.19800
C1212       C  0.90750982  0.65040212  0.98734848    -0.10700
C1213       C  0.90181667  0.65542991  0.03338172    -0.14800
C1214       C  0.90444978  0.66700118  0.04379696    -0.28700
C1215       C  0.90696189  0.66498490  0.96173977    -0.03000
C1216       C  0.90901067  0.65665179  0.94988140    -0.39500
H1217       H  0.89796001  0.67815877  0.98473461     0.13300
H1218       H  0.89527859  0.67427959  0.01458455     0.12900
H1219       H  0.90863632  0.64003525  0.01015180     0.12300
H1220       H  0.91106478  0.64370788  0.98004141     0.12600
H1221       H  0.90008252  0.64476740  0.03848357     0.15300
H1222       H  0.90724536  0.67800436  0.03874024     0.14100
H1223       H  0.90686708  0.67521648  0.95793354     0.11800
H1224       H  0.90872182  0.64610985  0.95294567     0.13800
C1225       C  0.09748203  0.75005704  0.98947627     0.19900
C1226       C  0.10209239  0.76325593  0.99915643    -0.18200
C1227       C  0.10136442  0.76253946  0.01652091    -0.10500
C1228       C  0.09574468  0.74849076  0.02468909     0.22100
C1229       C  0.09154904  0.73532332  0.01505442    -0.19800
C1230       C  0.09230930  0.73604501  0.99761108    -0.10700
C1231       C  0.09425647  0.74731929  0.04317429    -0.14800
C1232       C  0.09193660  0.75710968  0.05249470    -0.28700
C1233       C  0.09748802  0.75142122  0.97103957    -0.03000
C1234       C  0.09761134  0.74130509  0.96010384    -0.39500
H1235       H  0.10624313  0.77421451  0.99323805     0.13300
H1236       H  0.10528842  0.77304871  0.02347208     0.12900
H1237       H  0.08729415  0.72437861  0.02103094     0.12300
H1238       H  0.08841808  0.72557220  0.99060820     0.12600
H1239       H  0.09458502  0.73791590  0.04918582     0.15300
H1240       H  0.09074701  0.76602995  0.04652894     0.14100
H1241       H  0.09772262  0.76154085  0.96622465     0.11800
H1242       H  0.09816969  0.73147025  0.96440443     0.13800
C1243       C  0.98190377  0.71218359  0.11156332     0.19900
C1244       C  0.99160269  0.72807591  0.11237364    -0.18200
C1245       C  0.00747642  0.73444356  0.11287269    -0.10500
C1246       C  0.01398550  0.72497402  0.11273707     0.22100
C1247       C  0.00422710  0.70910871  0.11247301    -0.19800
C1248       C  0.98846784  0.70279125  0.11200443    -0.10700
C1249       C  0.03071076  0.73079675  0.11200799    -0.14800
C1250       C  0.04183420  0.74544407  0.11400779    -0.28700
C1251       C  0.96505327  0.70563086  0.11040539    -0.03000
C1252       C  0.95590199  0.69187571  0.10340494    -0.39500
H1253       H  0.98689351  0.73560720  0.11224052     0.13300
H1254       H  0.01450965  0.74671484  0.11298305     0.12900
H1255       H  0.00882900  0.70148031  0.11252499     0.12300
H1256       H  0.98150558  0.69050425  0.11212206     0.12600
H1257       H  0.03408168  0.72231995  0.10950606     0.15300
H1258       H  0.03916250  0.75429732  0.11707750     0.14100
H1259       H  0.96016976  0.71241396  0.11490442     0.11800
H1260       H  0.96085604  0.68549332  0.09797448     0.13800
C1261       C  0.09022249  0.68037373  0.17356330     0.19900
C1262       C  0.09264067  0.69448475  0.17959854    -0.18200
C1263       C  0.09352720  0.70563714  0.16871783    -0.10500
C1264       C  0.09178700  0.70285425  0.15141771     0.22100
C1265       C  0.08955811  0.68879431  0.14538500    -0.19800
C1266       C  0.08873121  0.67766451  0.15627060    -0.10700
C1267       C  0.09210640  0.71408399  0.13919766    -0.14800
C1268       C  0.09152645  0.72673420  0.14333976    -0.28700
C1269       C  0.08854220  0.66860462  0.18578129    -0.03000
C1270       C  0.09023438  0.65651477  0.18202718    -0.39500
H1271       H  0.09383966  0.69690265  0.19284737     0.13300
H1272       H  0.09560042  0.71634665  0.17403873     0.12900
H1273       H  0.08817874  0.68628049  0.13215927     0.12300
H1274       H  0.08651086  0.66685216  0.15107363     0.12600
H1275       H  0.09232608  0.71152164  0.12605585     0.15300
H1276       H  0.09090252  0.72954638  0.15625878     0.14100
H1277       H  0.08595506  0.67010096  0.19858070     0.11800
H1278       H  0.09349133  0.65503034  0.16956566     0.13800
C1279       C  0.86150139  0.52259260  0.32604682     0.19900
C1280       C  0.85230119  0.51633618  0.31188604    -0.18200
C1281       C  0.85845845  0.52024396  0.29580290    -0.10500
C1282       C  0.87407350  0.53050816  0.29351382     0.22100
C1283       C  0.88318294  0.53694370  0.30767691    -0.19800
C1284       C  0.87702736  0.53308946  0.32372036    -0.10700
C1285       C  0.88163840  0.53390750  0.27684500    -0.14800
C1286       C  0.87438678  0.53088405  0.26209889    -0.28700
C1287       C  0.85479695  0.51691130  0.34286744    -0.03000
C1288       C  0.86120232  0.52403964  0.35736383    -0.39500
H1289       H  0.84032900  0.50810152  0.31327118     0.13300
H1290       H  0.85103331  0.51473794  0.28532925     0.12900
H1291       H  0.89526088  0.54475563  0.30633810     0.12300
H1292       H  0.88464626  0.53791451  0.33418104     0.12600
H1293       H  0.89391553  0.53891165  0.27675231     0.15300
H1294       H  0.86219594  0.52620508  0.26160325     0.14100
H1295       H  0.84412418  0.50616675  0.34331183     0.11800
H1296       H  0.87144773  0.53511806  0.35739984     0.13800
C1297       C  0.00617398  0.58695738  0.21737624     0.19900
C1298       C  0.99712008  0.58395147  0.20317800    -0.18200
C1299       C  0.98135374  0.57722082  0.20455029    -0.10500
C1300       C  0.97420391  0.57308060  0.22022677     0.22100
C1301       C  0.98326351  0.57620421  0.23446140    -0.19800
C1302       C  0.99906681  0.58297458  0.23308939    -0.10700
C1303       C  0.95741860  0.56570093  0.22220712    -0.14800
C1304       C  0.94759092  0.55770997  0.20995298    -0.28700
C1305       C  0.02286295  0.59384725  0.21510997    -0.03000
C1306       C  0.03312861  0.60128925  0.22717990    -0.39500
H1307       H  0.00229054  0.58694860  0.19093486     0.13300
H1308       H  0.97489812  0.57550516  0.19329796     0.12900
H1309       H  0.97806589  0.57316405  0.24668695     0.12300
H1310       H  0.00556051  0.58474943  0.24432366     0.12600
H1311       H  0.95299088  0.56636647  0.23435335     0.15300
H1312       H  0.95170666  0.55617345  0.19800968     0.14100
H1313       H  0.02690335  0.59316025  0.20273790     0.11800
H1314       H  0.02955956  0.60278184  0.23947124     0.13800
C1315       C  0.89446221  0.60809996  0.14491295     0.19900
C1316       C  0.88824555  0.59259108  0.14080540    -0.18200
C1317       C  0.88823476  0.58225774  0.15232608    -0.10500
C1318       C  0.89454220  0.58725540  0.16828775     0.22100
C1319       C  0.90075026  0.60275770  0.17236524    -0.19800
C1320       C  0.90074451  0.61305619  0.16088597    -0.10700
C1321       C  0.89583206  0.57709370  0.18072519    -0.14800
C1322       C  0.88839240  0.56172930  0.17992787    -0.28700
C1323       C  0.89512389  0.61888096  0.13191582    -0.03000
C1324       C  0.89735262  0.63290648  0.13537008    -0.39500
H1325       H  0.88353374  0.58847406  0.12853432     0.13300
H1326       H  0.88365943  0.57052499  0.14843927     0.12900
H1327       H  0.90588209  0.60700544  0.18445066     0.12300
H1328       H  0.90614279  0.62493805  0.16449028     0.12600
H1329       H  0.90347671  0.58265523  0.19113083     0.15300
H1330       H  0.88034645  0.55566242  0.17004057     0.14100
H1331       H  0.89394282  0.61519347  0.11898767     0.11800
H1332       H  0.89801143  0.63667432  0.14817222     0.13800
C1333       C  0.59492859  0.57444420  0.77688923     0.19900
C1334       C  0.58948741  0.57811666  0.76268688    -0.18200
C1335       C  0.58146863  0.58599778  0.76411436    -0.10500
C1336       C  0.57878802  0.59046532  0.77987395     0.22100
C1337       C  0.58478668  0.58731155  0.79399867    -0.19800
C1338       C  0.59276667  0.57940813  0.79256346    -0.10700
C1339       C  0.57012984  0.59867437  0.78218102    -0.14800
C1340       C  0.56093380  0.59925380  0.77057637    -0.28700
C1341       C  0.60289354  0.56556270  0.77491291    -0.03000
C1342       C  0.60309242  0.55647232  0.78690536    -0.39500
H1343       H  0.59126386  0.57468227  0.75043506     0.13300
H1344       H  0.57758375  0.58864348  0.75281381     0.12900
H1345       H  0.58319146  0.59087965  0.80625238     0.12300
H1346       H  0.59732427  0.57734564  0.80374295     0.12600
H1347       H  0.57103041  0.60412084  0.79418518     0.15300
H1348       H  0.55929387  0.59349269  0.75868858     0.14100
H1349       H  0.60806399  0.56589310  0.76291055     0.11800
H1350       H  0.59728534  0.55533717  0.79864554     0.13800
C1351       C  0.58456014  0.68083979  0.82616240     0.19900
C1352       C  0.60020369  0.68915813  0.82271912    -0.18200
C1353       C  0.61039758  0.69986726  0.83407300    -0.10500
C1354       C  0.60521193  0.70268491  0.84925193     0.22100
C1355       C  0.58957685  0.69438852  0.85277253    -0.19800
C1356       C  0.57932246  0.68363372  0.84135781    -0.10700
C1357       C  0.61588502  0.71361653  0.86191528    -0.14800
C1358       C  0.62970203  0.72533546  0.85800040    -0.28700
C1359       C  0.57452711  0.66910945  0.81369418    -0.03000
C1360       C  0.55935444  0.65983353  0.81500988    -0.39500
H1361       H  0.60464938  0.68719137  0.81123712     0.13300
H1362       H  0.62236458  0.70556746  0.83104357     0.12900
H1363       H  0.58527553  0.69622428  0.86442990     0.12300
H1364       H  0.56742598  0.67750851  0.84464966     0.12600
H1365       H  0.61217269  0.71207145  0.87482959     0.15300
H1366       H  0.63326715  0.72757241  0.84508017     0.14100
H1367       H  0.58017526  0.66776225  0.80279960     0.11800
H1368       H  0.55307668  0.66066086  0.82554046     0.13800
C1369       C  0.85140680  0.67123427  0.88742400     0.19900
C1370       C  0.83702199  0.65809347  0.88709370    -0.18200
C1371       C  0.82380986  0.65907497  0.88603301    -0.10500
C1372       C  0.82451958  0.67336533  0.88563911     0.22100
C1373       C  0.83898363  0.68655321  0.88562278    -0.19800
C1374       C  0.85227969  0.68554277  0.88650953    -0.10700
C1375       C  0.81056165  0.67497855  0.88561687    -0.14800
C1376       C  0.79645096  0.66324262  0.88851982    -0.28700
C1377       C  0.86492048  0.66928382  0.88967188    -0.03000
C1378       C  0.87945411  0.67995000  0.88647631    -0.39500
H1379       H  0.83596397  0.64690757  0.88770989     0.13300
H1380       H  0.81318270  0.64847313  0.88554806     0.12900
H1381       H  0.84000742  0.69772656  0.88526061     0.12300
H1382       H  0.86311792  0.69597894  0.88697048     0.12600
H1383       H  0.81202105  0.68627180  0.88393454     0.15300
H1384       H  0.79474463  0.65199684  0.89086006     0.14100
H1385       H  0.86267976  0.65824338  0.89414457     0.11800
H1386       H  0.88217511  0.69093891  0.88146572     0.13800
C1387       C  0.68320547  0.58100904  0.82671748     0.19900
C1388       C  0.69182396  0.59650328  0.82252917    -0.18200
C1389       C  0.70219633  0.60724273  0.83375458    -0.10500
C1390       C  0.70435245  0.60277564  0.84958181     0.22100
C1391       C  0.69582974  0.58726666  0.85377861    -0.19800
C1392       C  0.68541009  0.57648142  0.84251149    -0.10700
C1393       C  0.71463828  0.61402772  0.86230562    -0.14800
C1394       C  0.72577577  0.62824749  0.85859179    -0.28700
C1395       C  0.67173644  0.57037422  0.81439270    -0.03000
C1396       C  0.66253966  0.55520488  0.81632560    -0.39500
H1397       H  0.69033021  0.60041782  0.81055775     0.13300
H1398       H  0.70808736  0.61906374  0.83006275     0.12900
H1399       H  0.69713827  0.58348430  0.86591151     0.12300
H1400       H  0.67902775  0.56474446  0.84642378     0.12600
H1401       H  0.71291222  0.61047572  0.87524186     0.15300
H1402       H  0.72821079  0.63187990  0.84574467     0.14100
H1403       H  0.67046852  0.57552456  0.80314461     0.11800
H1404       H  0.66320026  0.54946654  0.82733005     0.13800
C1405       C  0.70597631  0.72328464  0.88339811     0.19900
C1406       C  0.70009462  0.70751109  0.88157428    -0.18200
C1407       C  0.70965747  0.70127194  0.88139806    -0.10500
C1408       C  0.72546913  0.71062538  0.88329960     0.22100
C1409       C  0.73147876  0.72648909  0.88442297    -0.19800
C1410       C  0.72185410  0.73278049  0.88457938    -0.10700
C1411       C  0.73569463  0.70393338  0.88428315    -0.14800
C1412       C  0.73085214  0.69010777  0.89103362    -0.28700
C1413       C  0.69497789  0.72896611  0.88516386    -0.03000
C1414       C  0.69833836  0.74360634  0.88362883    -0.39500
H1415       H  0.68795440  0.69989582  0.88047110     0.13300
H1416       H  0.70458033  0.68906393  0.87980307     0.12900
H1417       H  0.74361180  0.73399532  0.88573368     0.12300
H1418       H  0.72686961  0.74496924  0.88617955     0.12600
H1419       H  0.74734675  0.71057763  0.87994076     0.15300
H1420       H  0.71950111  0.68403847  0.89631400     0.14100
H1421       H  0.68328487  0.72043898  0.88793736     0.11800
H1422       H  0.70967823  0.75239910  0.88012582     0.13800
C1423       C  0.58515021  0.59783531  0.23637493     0.19900
C1424       C  0.58953473  0.59313331  0.25065017    -0.18200
C1425       C  0.59702972  0.58471245  0.24925500    -0.10500
C1426       C  0.60037221  0.58091109  0.23344498     0.22100
C1427       C  0.59653616  0.58621762  0.21924437    -0.19800
C1428       C  0.58910785  0.59462597  0.22064799    -0.10700
C1429       C  0.60758444  0.57133514  0.23088979    -0.14800
C1430       C  0.61078184  0.56433426  0.24306105    -0.28700
C1431       C  0.57647883  0.60602615  0.23820396    -0.03000
C1432       C  0.56712248  0.60574708  0.22626429    -0.39500
H1433       H  0.58686451  0.59570429  0.26292378     0.13300
H1434       H  0.60000256  0.58119527  0.26059809     0.12900
H1435       H  0.59917532  0.58372422  0.20691776     0.12300
H1436       H  0.58657720  0.59862822  0.20934127     0.12600
H1437       H  0.61000467  0.56958196  0.21810440     0.15300
H1438       H  0.60855661  0.56561962  0.25600552     0.14100
H1439       H  0.57729316  0.61185931  0.24991833     0.11800
H1440       H  0.56550059  0.59926157  0.21488077     0.13800
C1441       C  0.65502684  0.74526352  0.97673800     0.19900
C1442       C  0.64186068  0.73776352  0.98658503    -0.18200
C1443       C  0.64279159  0.73814879  0.00403135    -0.10500
C1444       C  0.65700550  0.74602025  0.01203255     0.22100
C1445       C  0.67015738  0.75296491  0.00214205    -0.19800
C1446       C  0.66922762  0.75260604  0.98476803    -0.10700
C1447       C  0.65882756  0.74718724  0.03052200    -0.14800
C1448       C  0.64765696  0.74450903  0.04145381    -0.28700
C1449       C  0.65361608  0.74498091  0.95820524    -0.03000
C1450       C  0.66444915  0.75553175  0.94829909    -0.39500
H1451       H  0.63078583  0.73172863  0.98075762     0.13300
H1452       H  0.63236919  0.73217462  0.01109365     0.12900
H1453       H  0.68127267  0.75884044  0.00789983     0.12300
H1454       H  0.67971338  0.75795702  0.97774491     0.12600
H1455       H  0.67014472  0.75101121  0.03535919     0.15300
H1456       H  0.63628631  0.74101087  0.03714158     0.14100
H1457       H  0.64319298  0.73609701  0.95259938     0.11800
H1458       H  0.67460647  0.76489722  0.95372758     0.13800
C1459       C  0.57885092  0.68130011  0.17212251     0.19900
C1460       C  0.58073455  0.67851061  0.15536921    -0.18200
C1461       C  0.59214130  0.68989691  0.14555595    -0.10500
C1462       C  0.60187000  0.70454818  0.15220380     0.22100
C1463       C  0.59967497  0.70746191  0.16883926    -0.19800
C1464       C  0.58828084  0.69604759  0.17866724    -0.10700
C1465       C  0.61487428  0.71673098  0.14254372    -0.14800
C1466       C  0.61591770  0.71670418  0.12579608    -0.28700
C1467       C  0.56723270  0.66848758  0.18241031    -0.03000
C1468       C  0.56846204  0.66777568  0.19902405    -0.39500
H1469       H  0.57364763  0.66728979  0.14996871     0.13300
H1470       H  0.59354046  0.68692200  0.13297471     0.12900
H1471       H  0.60689558  0.71861765  0.17431621     0.12300
H1472       H  0.58692683  0.69884990  0.19135557     0.12600
H1473       H  0.62392628  0.72607465  0.14950179     0.15300
H1474       H  0.60669864  0.70792831  0.11852844     0.14100
H1475       H  0.55810116  0.65876914  0.17597206     0.11800
H1476       H  0.57809553  0.67690185  0.20549411     0.13800
C1477       C  0.84203764  0.66965985  0.10823622     0.19900
C1478       C  0.82836790  0.65852813  0.11543688    -0.18200
C1479       C  0.81499937  0.65919399  0.11381934    -0.10500
C1480       C  0.81490980  0.67098389  0.10476270     0.22100
C1481       C  0.82862634  0.68227724  0.09776786    -0.19800
C1482       C  0.84208627  0.68172667  0.09958863    -0.10700
C1483       C  0.80043570  0.67078314  0.10097550    -0.14800
C1484       C  0.78815792  0.66430836  0.11103936    -0.28700
C1485       C  0.85540187  0.66726819  0.10840191    -0.03000
C1486       C  0.86997114  0.67835390  0.10629322    -0.39500
H1487       H  0.82792437  0.64899132  0.12196603     0.13300
H1488       H  0.80461526  0.65002191  0.11896920     0.12900
H1489       H  0.82885158  0.69137034  0.09053153     0.12300
H1490       H  0.85227954  0.69032425  0.09351873     0.12600
H1491       H  0.79972581  0.67566007  0.08924911     0.15300
H1492       H  0.78897537  0.66011800  0.12315564     0.14100
H1493       H  0.85303888  0.65564019  0.11011846     0.11800
H1494       H  0.87283632  0.69019363  0.10553482     0.13800
C1495       C  0.74521258  0.65089802  0.97741429     0.19900
C1496       C  0.74070000  0.63764041  0.98675153    -0.18200
C1497       C  0.74121651  0.63827233  0.00421281    -0.10500
C1498       C  0.74612152  0.65223748  0.01264552     0.22100
C1499       C  0.75040756  0.66538205  0.00325100    -0.19800
C1500       C  0.74982926  0.66473650  0.98592084    -0.10700
C1501       C  0.74690231  0.65393252  0.03109057    -0.14800
C1502       C  0.74091230  0.64240296  0.04204838    -0.28700
C1503       C  0.74481604  0.65003394  0.95888812    -0.03000
C1504       C  0.75378594  0.66215204  0.94936982    -0.39500
H1505       H  0.73696179  0.62680550  0.98050977     0.13300
H1506       H  0.73790456  0.62786346  0.01090727     0.12900
H1507       H  0.75407006  0.67626006  0.00936902     0.12300
H1508       H  0.75278823  0.67511086  0.97930891     0.12600
H1509       H  0.75233372  0.66553051  0.03596146     0.15300
H1510       H  0.73533396  0.63061410  0.03793023     0.14100
H1511       H  0.73728782  0.63913572  0.95297157     0.11800
H1512       H  0.76196947  0.67286332  0.95510905     0.13800
C1513       C  0.67734516  0.57517147  0.17160306     0.19900
C1514       C  0.67912597  0.57205897  0.15492175    -0.18200
C1515       C  0.68950542  0.58366334  0.14444892    -0.10500
C1516       C  0.69822717  0.59875091  0.15045192     0.22100
C1517       C  0.69641202  0.60178043  0.16714756    -0.19800
C1518       C  0.68611153  0.59021974  0.17756835    -0.10700
C1519       C  0.70909671  0.61184059  0.13997753    -0.14800
C1520       C  0.71164715  0.61110603  0.12359306    -0.28700
C1521       C  0.66555893  0.56286834  0.18218145    -0.03000
C1522       C  0.66631925  0.56319718  0.19892040    -0.39500
H1523       H  0.67241050  0.56059927  0.14995271     0.13300
H1524       H  0.69046617  0.58068310  0.13173571     0.12900
H1525       H  0.70283402  0.61326347  0.17213758     0.12300
H1526       H  0.68473591  0.59328362  0.19013381     0.12600
H1527       H  0.71522511  0.62288736  0.14614927     0.15300
H1528       H  0.70587758  0.60041924  0.11679305     0.14100
H1529       H  0.65581971  0.55351677  0.17603731     0.11800
H1530       H  0.67631571  0.57207565  0.20516159     0.13800
C1531       C  0.69571195  0.71394634  0.10271913     0.19900
C1532       C  0.68964060  0.69856494  0.10693984    -0.18200
C1533       C  0.69882201  0.69192424  0.10757210    -0.10500
C1534       C  0.71438698  0.70040958  0.10360154     0.22100
C1535       C  0.72063600  0.71596715  0.09991051    -0.19800
C1536       C  0.71140802  0.72268621  0.09939453    -0.10700
C1537       C  0.72415089  0.69318470  0.10302863    -0.14800
C1538       C  0.71832929  0.67823000  0.09958029    -0.28700
C1539       C  0.68500193  0.71994916  0.10118221    -0.03000
C1540       C  0.68897260  0.73480427  0.10170685    -0.39500
H1541       H  0.67765049  0.69157987  0.10973282     0.13300
H1542       H  0.69361092  0.68010535  0.11121145     0.12900
H1543       H  0.73260032  0.72283128  0.09695063     0.12300
H1544       H  0.71652359  0.73453497  0.09590274     0.12600
H1545       H  0.73633403  0.70036022  0.10465729     0.15300
H1546       H  0.70632160  0.67126003  0.09685434     0.14100
H1547       H  0.67302673  0.71152984  0.09993414     0.11800
H1548       H  0.70071653  0.74353536  0.10363352     0.13800
C1549       C  0.98172516  0.28571973  0.89551388     0.19900
C1550       C  0.99043671  0.27843917  0.89535853    -0.18200
C1551       C  0.00633966  0.28691903  0.89678807    -0.10500
C1552       C  0.01387959  0.30294415  0.89819543     0.22100
C1553       C  0.00514140  0.31017306  0.89796055    -0.19800
C1554       C  0.98933813  0.30174042  0.89652809    -0.10700
C1555       C  0.03066507  0.31270909  0.90035218    -0.14800
C1556       C  0.04102201  0.30829272  0.89751038    -0.28700
C1557       C  0.96478248  0.27647241  0.89462017    -0.03000
C1558       C  0.95581928  0.28124791  0.90173225    -0.39500
H1559       H  0.98489127  0.26612406  0.89449849     0.13300
H1560       H  0.01256362  0.28083733  0.89710510     0.12900
H1561       H  0.01058416  0.32248223  0.89886422     0.12300
H1562       H  0.98315098  0.30786797  0.89608069     0.12600
H1563       H  0.03477757  0.32448518  0.90406620     0.15300
H1564       H  0.03753655  0.29681941  0.89324804     0.14100
H1565       H  0.95961400  0.26528232  0.88874877     0.11800
H1566       H  0.96096820  0.29191519  0.90866055     0.13800
C1567       C  0.10688479  0.56702514  0.78573221     0.19900
C1568       C  0.09900289  0.55530722  0.79728160    -0.18200
C1569       C  0.09855126  0.54130382  0.79555361    -0.10500
C1570       C  0.10590218  0.53868019  0.78207254     0.22100
C1571       C  0.11383617  0.55042766  0.77057499    -0.19800
C1572       C  0.11439668  0.56446032  0.77238151    -0.10700
C1573       C  0.10464539  0.52359022  0.77881899    -0.14800
C1574       C  0.10124106  0.51289175  0.79050099    -0.28700
C1575       C  0.10568088  0.58106748  0.78696583    -0.03000
C1576       C  0.11573650  0.59448132  0.78009840    -0.39500
H1577       H  0.09290031  0.55689047  0.80751011     0.13300
H1578       H  0.09195160  0.53242855  0.80442679     0.12900
H1579       H  0.11941141  0.54864181  0.75994374     0.12300
H1580       H  0.12016719  0.57298291  0.76290252     0.12600
H1581       H  0.10677318  0.52124616  0.76614462     0.15300
H1582       H  0.09979952  0.51512442  0.80342879     0.14100
H1583       H  0.09579111  0.58014649  0.79335803     0.11800
H1584       H  0.12604720  0.59590872  0.77430964     0.13800
C1585       C  0.09686818  0.39645884  0.85203009     0.19900
C1586       C  0.10226288  0.41191383  0.85583167    -0.18200
C1587       C  0.10175604  0.42173988  0.84399575    -0.10500
C1588       C  0.09573916  0.41626402  0.82804774     0.22100
C1589       C  0.09039777  0.40085614  0.82423306    -0.19800
C1590       C  0.09097637  0.39106663  0.83600084    -0.10700
C1591       C  0.09390376  0.42588676  0.81540390    -0.14800
C1592       C  0.10244520  0.44119300  0.81475067    -0.28700
C1593       C  0.09669949  0.38622713  0.86540563    -0.03000
C1594       C  0.09451059  0.37210460  0.86267376    -0.39500
H1595       H  0.10668731  0.41636581  0.86811779     0.13300
H1596       H  0.10561859  0.43344022  0.84757539     0.12900
H1597       H  0.08556263  0.39630372  0.81210673     0.12300
H1598       H  0.08631646  0.37922496  0.83254250     0.12600
H1599       H  0.08529465  0.41999078  0.80590706     0.15300
H1600       H  0.11158144  0.44735454  0.82359364     0.14100
H1601       H  0.09833314  0.39050080  0.87813677     0.11800
H1602       H  0.09337613  0.36763654  0.85012560     0.13800
C1603       C  0.86136043  0.35493823  0.67397194     0.19900
C1604       C  0.87712038  0.36389683  0.67636335    -0.18200
C1605       C  0.88328192  0.36783530  0.69240678    -0.10500
C1606       C  0.87378066  0.36278729  0.70652604     0.22100
C1607       C  0.85806040  0.35377864  0.70417342    -0.19800
C1608       C  0.85190721  0.34975111  0.68816744    -0.10700
C1609       C  0.87969915  0.36695278  0.72384315    -0.14800
C1610       C  0.89402417  0.37107771  0.72819337    -0.28700
C1611       C  0.85534230  0.35164875  0.65655549    -0.03000
C1612       C  0.84055859  0.34578143  0.65275570    -0.39500
H1613       H  0.88471375  0.36810889  0.66574501     0.13300
H1614       H  0.89543057  0.37511924  0.69361424     0.12900
H1615       H  0.85047286  0.34972203  0.71480931     0.12300
H1616       H  0.83975592  0.34253790  0.68718994     0.12600
H1617       H  0.87176466  0.36608189  0.73350874     0.15300
H1618       H  0.90199881  0.37137640  0.71895464     0.14100
H1619       H  0.86350412  0.35495330  0.64641780     0.11800
H1620       H  0.83214409  0.34283547  0.66247541     0.13800
C1621       C  0.90769136  0.47499398  0.78531767     0.19900
C1622       C  0.89483048  0.46048655  0.78335910    -0.18200
C1623       C  0.89604485  0.44729521  0.78435685    -0.10500
C1624       C  0.91026321  0.44843292  0.78704661     0.22100
C1625       C  0.92307410  0.46295496  0.78901773    -0.19800
C1626       C  0.92182838  0.47606708  0.78824154    -0.10700
C1627       C  0.91258783  0.43503733  0.78632107    -0.14800
C1628       C  0.90166305  0.42046929  0.78883172    -0.28700
C1629       C  0.90648699  0.48892057  0.78293390    -0.03000
C1630       C  0.91552388  0.50202439  0.79110961    -0.39500
H1631       H  0.88385722  0.45937619  0.78084920     0.13300
H1632       H  0.88597390  0.43633831  0.78235118     0.12900
H1633       H  0.93419517  0.46418858  0.79084007     0.12300
H1634       H  0.93207261  0.48705582  0.78926533     0.12600
H1635       H  0.92402554  0.43736553  0.78346599     0.15300
H1636       H  0.89028428  0.41774225  0.79247508     0.14100
H1637       H  0.89830783  0.48847576  0.77397395     0.11800
H1638       H  0.92310025  0.50222823  0.80070912     0.13800
C1639       C  0.01860497  0.43475341  0.77766451     0.19900
C1640       C  0.00945040  0.43406694  0.79117318    -0.18200
C1641       C  0.99361612  0.42558930  0.79009113    -0.10500
C1642       C  0.98654201  0.41756634  0.77537045     0.22100
C1643       C  0.99569214  0.41854623  0.76173955    -0.19800
C1644       C  0.01152261  0.42704006  0.76281438    -0.10700
C1645       C  0.96974920  0.40880184  0.77334839    -0.14800
C1646       C  0.95984888  0.40423730  0.78612620    -0.28700
C1647       C  0.03540478  0.44380634  0.77954743    -0.03000
C1648       C  0.04524997  0.44224020  0.76956199    -0.39500
H1649       H  0.01457827  0.44010715  0.80266626     0.13300
H1650       H  0.98707254  0.42566995  0.80071213     0.12900
H1651       H  0.99055987  0.41274784  0.75014188     0.12300
H1652       H  0.01805495  0.42767118  0.75187525     0.12600
H1653       H  0.96534354  0.40605980  0.76072630     0.15300
H1654       H  0.96379938  0.40627244  0.79889511     0.14100
H1655       H  0.03983810  0.45167196  0.79005039     0.11800
H1656       H  0.04124617  0.43407759  0.75937073     0.13800
C1657       C  0.89857984  0.32918371  0.83368693     0.19900
C1658       C  0.89625429  0.32823754  0.85099590    -0.18200
C1659       C  0.89694369  0.31691479  0.86025450    -0.10500
C1660       C  0.90009719  0.30629142  0.85234695     0.22100
C1661       C  0.90248110  0.30732432  0.83505875    -0.19800
C1662       C  0.90175568  0.31858287  0.82583478    -0.10700
C1663       C  0.90174501  0.29441757  0.86149714    -0.14800
C1664       C  0.89758239  0.29041697  0.87744560    -0.28700
C1665       C  0.89893600  0.34206980  0.82442838    -0.03000
C1666       C  0.89703419  0.34188725  0.80782540    -0.39500
H1667       H  0.89406522  0.33641824  0.85742305     0.13300
H1668       H  0.89537420  0.31685102  0.87357082     0.12900
H1669       H  0.90514596  0.29947730  0.82863138     0.12300
H1670       H  0.90422255  0.31920106  0.81266258     0.12600
H1671       H  0.90664470  0.28858443  0.85463290     0.15300
H1672       H  0.89236478  0.29568752  0.88468188     0.14100
H1673       H  0.90145909  0.35229734  0.83146439     0.11800
H1674       H  0.89406163  0.33165865  0.80061896     0.13800
C1675       C  0.89736201  0.25485236  0.98616559     0.19900
C1676       C  0.89871286  0.26645187  0.99698020    -0.18200
C1677       C  0.89832904  0.26464324  0.01427606    -0.10500
C1678       C  0.89644612  0.25105452  0.02116279     0.22100
C1679       C  0.89483541  0.23937392  0.01033892    -0.19800
C1680       C  0.89516443  0.24115621  0.99308455    -0.10700
C1681       C  0.89684862  0.24878227  0.03941425    -0.14800
C1682       C  0.89517060  0.25734442  0.05125864    -0.28700
C1683       C  0.89823098  0.25745677  0.96784879    -0.03000
C1684       C  0.90107979  0.24916540  0.95671377    -0.39500
H1685       H  0.90035678  0.27709604  0.99202680     0.13300
H1686       H  0.89990901  0.27407751  0.02208402     0.12900
H1687       H  0.89331505  0.22876711  0.01526504     0.12300
H1688       H  0.89355243  0.23167622  0.98534418     0.12600
H1689       H  0.89858509  0.23949950  0.04328890     0.15300
H1690       H  0.89280548  0.26631094  0.04795591     0.14100
H1691       H  0.89705137  0.26692781  0.96341508     0.11800
H1692       H  0.90303409  0.24011180  0.96076891     0.13800
C1693       C  0.09188153  0.34479952  0.98562110     0.19900
C1694       C  0.09359112  0.33460342  0.99581394    -0.18200
C1695       C  0.09372186  0.33600506  0.01310260    -0.10500
C1696       C  0.09175062  0.34747807  0.02075668     0.22100
C1697       C  0.09038872  0.35795381  0.01058190    -0.19800
C1698       C  0.09038857  0.35661902  0.99315755    -0.10700
C1699       C  0.09117349  0.34868818  0.03925159    -0.14800
C1700       C  0.08658906  0.33645950  0.04910193    -0.28700
C1701       C  0.09104693  0.34210177  0.96732967    -0.03000
C1702       C  0.09390086  0.35272856  0.95574763    -0.39500
H1703       H  0.09488817  0.32547737  0.99035543     0.13300
H1704       H  0.09550150  0.32809815  0.02037128     0.12900
H1705       H  0.08898168  0.36697730  0.01612967     0.12300
H1706       H  0.08881028  0.36457107  0.98572040     0.12600
H1707       H  0.09419334  0.35967091  0.04480393     0.15300
H1708       H  0.08269920  0.32530176  0.04358068     0.14100
H1709       H  0.08830525  0.33075041  0.96318919     0.11800
H1710       H  0.09729908  0.36435172  0.95935789     0.13800
C1711       C  0.00864946  0.29693580  0.10823430     0.19900
C1712       C  0.99956954  0.30378917  0.10845481    -0.18200
C1713       C  0.98373112  0.29500408  0.10926620    -0.10500
C1714       C  0.97637517  0.27895514  0.10951296     0.22100
C1715       C  0.98544673  0.27204692  0.10966985    -0.19800
C1716       C  0.00140008  0.28090106  0.10897789    -0.10700
C1717       C  0.95937056  0.26929657  0.10981698    -0.14800
C1718       C  0.95022486  0.27433322  0.10403244    -0.28700
C1719       C  0.02547104  0.30703753  0.10647654    -0.03000
C1720       C  0.03601981  0.30319703  0.11046241    -0.39500
H1721       H  0.00477756  0.31609229  0.10804484     0.13300
H1722       H  0.97736407  0.30093932  0.10986368     0.12900
H1723       H  0.98016376  0.25973854  0.11000296     0.12300
H1724       H  0.00793417  0.27512815  0.10861222     0.12600
H1725       H  0.95431130  0.25774997  0.11453781     0.15300
H1726       H  0.95522085  0.28553424  0.09847212     0.14100
H1727       H  0.02939783  0.31852112  0.10201094     0.11800
H1728       H  0.03260082  0.29207897  0.11562918     0.13800
C1729       C  0.08210796  0.55518775  0.21786459     0.19900
C1730       C  0.07496488  0.54382552  0.22995121    -0.18200
C1731       C  0.07509787  0.53010625  0.22876170    -0.10500
C1732       C  0.08263724  0.52742615  0.21550513     0.22100
C1733       C  0.08963979  0.53870142  0.20327302    -0.19800
C1734       C  0.08947298  0.55246764  0.20444381    -0.10700
C1735       C  0.08317870  0.51296508  0.21395195    -0.14800
C1736       C  0.08123447  0.50391313  0.22702342    -0.28700
C1737       C  0.08169761  0.56963886  0.22011995    -0.03000
C1738       C  0.08549100  0.58043654  0.20842629    -0.39500
H1739       H  0.06911445  0.54551455  0.24037282     0.13300
H1740       H  0.06905181  0.52159844  0.23816675     0.12900
H1741       H  0.09545356  0.53693847  0.19287186     0.12300
H1742       H  0.09531122  0.56093525  0.19494678     0.12600
H1743       H  0.08562374  0.50988240  0.20178937     0.15300
H1744       H  0.07946380  0.50714210  0.23938696     0.14100
H1745       H  0.07768894  0.57131426  0.23211055     0.11800
H1746       H  0.08919665  0.57913628  0.19614293     0.13800
C1747       C  0.09056217  0.41455978  0.17305045     0.19900
C1748       C  0.08650838  0.39957107  0.17726204    -0.18200
C1749       C  0.08708311  0.38962167  0.16551846    -0.10500
C1750       C  0.09193536  0.39441634  0.14910406     0.22100
C1751       C  0.09604566  0.40944287  0.14481581    -0.19800
C1752       C  0.09541965  0.41945376  0.15663630    -0.10700
C1753       C  0.09194876  0.38378442  0.13604283    -0.14800
C1754       C  0.09159725  0.37061495  0.13960786    -0.28700
C1755       C  0.08896610  0.42416871  0.18624343    -0.03000
C1756       C  0.09204748  0.43869560  0.18460653    -0.39500
H1757       H  0.08258219  0.39538176  0.18972212     0.13300
H1758       H  0.08324415  0.37806493  0.16938179     0.12900
H1759       H  0.09966913  0.41342642  0.13223465     0.12300
H1760       H  0.09858993  0.43085492  0.15275320     0.12600
H1761       H  0.09197053  0.38676702  0.12307552     0.15300
H1762       H  0.09215991  0.36764429  0.15240188     0.14100
H1763       H  0.08462599  0.41869126  0.19818677     0.11800
H1764       H  0.09643184  0.44479669  0.17303612     0.13800
C1765       C  0.87425517  0.35450580  0.30286752     0.19900
C1766       C  0.88050683  0.35058469  0.31620456    -0.18200
C1767       C  0.87324426  0.34676130  0.33178135    -0.10500
C1768       C  0.85960329  0.34693605  0.33430083     0.22100
C1769       C  0.85348457  0.35097825  0.32099027    -0.19800
C1770       C  0.86072469  0.35482862  0.30554450    -0.10700
C1771       C  0.85116400  0.34306259  0.35036086    -0.14800
C1772       C  0.85666575  0.34221547  0.36529459    -0.28700
C1773       C  0.88238656  0.35888463  0.28658279    -0.03000
C1774       C  0.87544170  0.35827326  0.27212374    -0.39500
H1775       H  0.89100323  0.35038989  0.31453032     0.13300
H1776       H  0.87827311  0.34357810  0.34164591     0.12900
H1777       H  0.84308247  0.35137652  0.32259917     0.12300
H1778       H  0.85579782  0.35836898  0.29591084     0.12600
H1779       H  0.83979283  0.34154891  0.34992187     0.15300
H1780       H  0.86805379  0.34397408  0.36653313     0.14100
H1781       H  0.89447928  0.36277998  0.28651229     0.11800
H1782       H  0.86326840  0.35376113  0.27176214     0.13800
C1783       C  0.88911092  0.46499139  0.21782289     0.19900
C1784       C  0.89072900  0.45843259  0.23242814    -0.18200
C1785       C  0.88986300  0.44422670  0.23205702    -0.10500
C1786       C  0.88757918  0.43623927  0.21693268     0.22100
C1787       C  0.88540477  0.44250034  0.20238085    -0.19800
C1788       C  0.88624330  0.45676981  0.20275121    -0.10700
C1789       C  0.88765705  0.42154951  0.21594302    -0.14800
C1790       C  0.89526587  0.41788556  0.22690878    -0.28700
C1791       C  0.89116660  0.48061621  0.21907548    -0.03000
C1792       C  0.88799322  0.48779236  0.20703468    -0.39500
H1793       H  0.89278631  0.46439320  0.24425142     0.13300
H1794       H  0.89097196  0.43958222  0.24368802     0.12900
H1795       H  0.88347929  0.43652395  0.19058730     0.12300
H1796       H  0.88501848  0.46138520  0.19117095     0.12600
H1797       H  0.88208382  0.41399275  0.20542374     0.15300
H1798       H  0.90161301  0.42572177  0.23692655     0.14100
H1799       H  0.89560002  0.48660800  0.23081981     0.11800
H1800       H  0.88321047  0.48222596  0.19523475     0.13800
C1801       C  0.00595277  0.41797487  0.22205932     0.19900
C1802       C  0.99667488  0.41444075  0.20795164    -0.18200
C1803       C  0.98085657  0.40663880  0.20949274    -0.10500
C1804       C  0.97397634  0.40233696  0.22527733     0.22100
C1805       C  0.98321882  0.40542945  0.23931564    -0.19800
C1806       C  0.99903264  0.41327224  0.23779164    -0.10700
C1807       C  0.95727045  0.39480367  0.22764080    -0.14800
C1808       C  0.94811865  0.39685319  0.21727342    -0.28700
C1809       C  0.02268089  0.42744833  0.21993836    -0.03000
C1810       C  0.03284822  0.42872888  0.23141722    -0.39500
H1811       H  0.00169542  0.41786795  0.19568315     0.13300
H1812       H  0.97409729  0.40401570  0.19831294     0.12900
H1813       H  0.97818682  0.40219304  0.25160159     0.12300
H1814       H  0.00569051  0.41603745  0.24904501     0.12600
H1815       H  0.95248071  0.38814242  0.23885935     0.15300
H1816       H  0.95276287  0.40409293  0.20644854     0.14100
H1817       H  0.02679932  0.43379543  0.20841614     0.11800
H1818       H  0.02922156  0.42203795  0.24270698     0.13800
C1819       C  0.88574172  0.29616260  0.15424139     0.19900
C1820       C  0.88379382  0.30833843  0.14916987    -0.18200
C1821       C  0.88375636  0.31875230  0.16080352    -0.10500
C1822       C  0.88553125  0.31712886  0.17790823     0.22100
C1823       C  0.88687551  0.30460882  0.18300383    -0.19800
C1824       C  0.88690648  0.29421684  0.17139638    -0.10700
C1825       C  0.88716722  0.32861522  0.19078124    -0.14800
C1826       C  0.88470364  0.34038747  0.18834065    -0.28700
C1827       C  0.88674863  0.28600308  0.14125561    -0.03000
C1828       C  0.89269129  0.27688755  0.14392182    -0.39500
H1829       H  0.88273131  0.31007149  0.13606657     0.13300
H1830       H  0.88280877  0.32823817  0.15620713     0.12900
H1831       H  0.88815133  0.30296409  0.19608231     0.12300
H1832       H  0.88789498  0.28475885  0.17600890     0.12600
H1833       H  0.89117049  0.32756102  0.20295189     0.15300
H1834       H  0.88037783  0.34176294  0.17657357     0.14100
H1835       H  0.88322360  0.28671021  0.12870258     0.11800
H1836       H  0.89686331  0.27632871  0.15612445     0.13800
C1837       C  0.15637758  0.34255209  0.89439734     0.19900
C1838       C  0.17051888  0.35569084  0.89170087    -0.18200
C1839       C  0.18395092  0.35502543  0.89141195    -0.10500
C1840       C  0.18363423  0.34109589  0.89377291     0.22100
C1841       C  0.16950005  0.32792521  0.89643815    -0.19800
C1842       C  0.15602139  0.32858709  0.89670975    -0.10700
C1843       C  0.19780730  0.34007441  0.89468951    -0.14800
C1844       C  0.21132618  0.35074459  0.88852790    -0.28700
C1845       C  0.14259859  0.34427738  0.89550697    -0.03000
C1846       C  0.12809336  0.33270486  0.89607931    -0.39500
H1847       H  0.17123279  0.36664943  0.89006796     0.13300
H1848       H  0.19453849  0.36557797  0.88987358     0.12900
H1849       H  0.16889267  0.31706916  0.89851269     0.12300
H1850       H  0.14549717  0.31819595  0.89912859     0.12600
H1851       H  0.19712114  0.33026875  0.90094164     0.15300
H1852       H  0.21222423  0.36036584  0.88173046     0.14100
H1853       H  0.14456669  0.35586931  0.89592257     0.11800
H1854       H  0.12550229  0.32095429  0.89527317     0.13800
C1855       C  0.28443981  0.30680588  0.89622985     0.19900
C1856       C  0.29861579  0.31100687  0.90325369    -0.18200
C1857       C  0.30436628  0.30103703  0.90310931    -0.10500
C1858       C  0.29597225  0.28630719  0.89614592     0.22100
C1859       C  0.28186015  0.28211548  0.88882598    -0.19800
C1860       C  0.27608889  0.29220422  0.88890232    -0.10700
C1861       C  0.30199101  0.27545813  0.89587035    -0.14800
C1862       C  0.31264420  0.27665040  0.90667293    -0.28700
C1863       C  0.27905084  0.31809878  0.89734384    -0.03000
C1864       C  0.26661922  0.31694228  0.88994664    -0.39500
H1865       H  0.30541313  0.32219490  0.90885213     0.13300
H1866       H  0.31556554  0.30515121  0.90822197     0.12900
H1867       H  0.27520663  0.27093648  0.88317444     0.12300
H1868       H  0.26509460  0.28843058  0.88339299     0.12600
H1869       H  0.29768039  0.26643042  0.88653724     0.15300
H1870       H  0.31656584  0.28522869  0.91644540     0.14100
H1871       H  0.28597518  0.32822898  0.90483940     0.11800
H1872       H  0.25941402  0.30723306  0.88210413     0.13800
C1873       C  0.53634833  0.43217197  0.78468748     0.19900
C1874       C  0.54899071  0.43667424  0.77422922    -0.18200
C1875       C  0.56205781  0.45096569  0.77623447    -0.10500
C1876       C  0.56262922  0.46117426  0.78861581     0.22100
C1877       C  0.55000244  0.45664413  0.79910087    -0.19800
C1878       C  0.53704627  0.44226153  0.79728399    -0.10700
C1879       C  0.57553542  0.47708581  0.78986548    -0.14800
C1880       C  0.58994404  0.48126207  0.78564331    -0.28700
C1881       C  0.52210063  0.41768040  0.78103466    -0.03000
C1882       C  0.51152099  0.40963004  0.79262139    -0.39500
H1883       H  0.54863545  0.42921568  0.76425470     0.13300
H1884       H  0.57139715  0.45423752  0.76761707     0.12900
H1885       H  0.55006236  0.46438883  0.80855040     0.12300
H1886       H  0.52736444  0.43938618  0.80524965     0.12600
H1887       H  0.57300950  0.48573191  0.79441907     0.15300
H1888       H  0.59286663  0.47270101  0.78192022     0.14100
H1889       H  0.52013556  0.41365986  0.76819960     0.11800
H1890       H  0.51363316  0.41294114  0.80565424     0.13800
C1891       C  0.41352397  0.32031612  0.82974994     0.19900
C1892       C  0.39777294  0.31455482  0.82887314    -0.18200
C1893       C  0.38791594  0.30426159  0.84071505    -0.10500
C1894       C  0.39357947  0.29937676  0.85378642     0.22100
C1895       C  0.40930627  0.30514013  0.85474150    -0.19800
C1896       C  0.41918221  0.31541154  0.84285924    -0.10700
C1897       C  0.38357467  0.28897729  0.86709220    -0.14800
C1898       C  0.36861695  0.27921853  0.86507761    -0.28700
C1899       C  0.42341560  0.33158751  0.81692568    -0.03000
C1900       C  0.43867769  0.33823256  0.81618056    -0.39500
H1901       H  0.39304443  0.31818118  0.81905422     0.13300
H1902       H  0.37594585  0.30051280  0.83978434     0.12900
H1903       H  0.41399145  0.30167890  0.86476167     0.12300
H1904       H  0.43116352  0.31946893  0.84421577     0.12600
H1905       H  0.38878024  0.28929377  0.87897848     0.15300
H1906       H  0.36328167  0.27818205  0.85311356     0.14100
H1907       H  0.41776988  0.33476289  0.80764671     0.11800
H1908       H  0.44489035  0.33551039  0.82510575     0.13800
C1909       C  0.46540706  0.56212778  0.78000787     0.19900
C1910       C  0.45126323  0.55991054  0.77482251    -0.18200
C1911       C  0.43856619  0.54522578  0.77378932    -0.10500
C1912       C  0.43981232  0.53236706  0.77768136     0.22100
C1913       C  0.45394309  0.53457037  0.78286448    -0.19800
C1914       C  0.46657590  0.54925906  0.78414543    -0.10700
C1915       C  0.42704336  0.51653927  0.77499564    -0.14800
C1916       C  0.41226595  0.51251649  0.77611818    -0.28700
C1917       C  0.47897569  0.57774667  0.77938706    -0.03000
C1918       C  0.49148584  0.58220793  0.78872853    -0.39500
H1919       H  0.45009521  0.56957935  0.77127601     0.13300
H1920       H  0.42798258  0.54395024  0.76927876     0.12900
H1921       H  0.45527617  0.52484903  0.78567357     0.12300
H1922       H  0.47735570  0.55041080  0.78767445     0.12600
H1923       H  0.42997640  0.50781657  0.77201487     0.15300
H1924       H  0.40906216  0.52080775  0.78011493     0.14100
H1925       H  0.47876931  0.58573851  0.77059525     0.11800
H1926       H  0.49162146  0.57464008  0.79812306     0.13800
C1927       C  0.42795866  0.41082749  0.76683541     0.19900
C1928       C  0.42006617  0.41124439  0.75276204    -0.18200
C1929       C  0.41306523  0.42016672  0.75267313    -0.10500
C1930       C  0.41372525  0.42885130  0.76680997     0.22100
C1931       C  0.42168147  0.42845728  0.78083720    -0.19800
C1932       C  0.42863083  0.41953242  0.78093212    -0.10700
C1933       C  0.40604130  0.43812758  0.76787442    -0.14800
C1934       C  0.39798421  0.43964068  0.75553991    -0.28700
C1935       C  0.43478823  0.40076032  0.76661335    -0.03000
C1936       C  0.44575392  0.40250996  0.77720370    -0.39500
H1937       H  0.41927014  0.40458602  0.74176986     0.13300
H1938       H  0.40708573  0.41999515  0.74154982     0.12900
H1939       H  0.42232802  0.43491588  0.79195408     0.12300
H1940       H  0.43412514  0.41923837  0.79227827     0.12600
H1941       H  0.40702483  0.44401992  0.77959836     0.15300
H1942       H  0.39687064  0.43428997  0.74349858     0.14100
H1943       H  0.43077825  0.39172005  0.75729604     0.11800
H1944       H  0.45044821  0.41185812  0.78610208     0.13800
C1945       C  0.32477623  0.42401678  0.82028410     0.19900
C1946       C  0.32722453  0.42412368  0.83749743    -0.18200
C1947       C  0.31613273  0.41314033  0.84793457    -0.10500
C1948       C  0.30215860  0.40175428  0.84140655     0.22100
C1949       C  0.29966328  0.40167971  0.82422587    -0.19800
C1950       C  0.31072936  0.41267917  0.81379524    -0.10700
C1951       C  0.29014829  0.38944867  0.85184446    -0.14800
C1952       C  0.28946931  0.39003212  0.86858484    -0.28700
C1953       C  0.33721087  0.43582168  0.80971058    -0.03000
C1954       C  0.33734115  0.43547541  0.79292658    -0.39500
H1955       H  0.33789930  0.43264377  0.84290421     0.13300
H1956       H  0.31877578  0.41348530  0.86099189     0.12900
H1957       H  0.28903892  0.39305819  0.81881315     0.12300
H1958       H  0.30805546  0.41216825  0.80074077     0.12600
H1959       H  0.28132696  0.37949039  0.84538360     0.15300
H1960       H  0.29771322  0.40002996  0.87540998     0.14100
H1961       H  0.34700745  0.44491626  0.81606895     0.11800
H1962       H  0.32804622  0.42635271  0.78610292     0.13800
C1963       C  0.56167943  0.47059082  0.22169944     0.19900
C1964       C  0.54793714  0.46889707  0.22778113    -0.18200
C1965       C  0.53457728  0.45475061  0.22735105    -0.10500
C1966       C  0.53456187  0.44175368  0.22087477     0.22100
C1967       C  0.54819789  0.44350491  0.21429645    -0.19800
C1968       C  0.56162905  0.45772515  0.21472641    -0.10700
C1969       C  0.52048163  0.42640167  0.22050255    -0.14800
C1970       C  0.50871640  0.42260159  0.23096975    -0.28700
C1971       C  0.57555507  0.48600222  0.22291861    -0.03000
C1972       C  0.58995128  0.48895000  0.22076649    -0.39500
H1973       H  0.54751723  0.47860146  0.23299115     0.13300
H1974       H  0.52427631  0.45418937  0.23190331     0.12900
H1975       H  0.54849847  0.43378838  0.20894437     0.12300
H1976       H  0.57182108  0.45852076  0.20949072     0.12600
H1977       H  0.51993921  0.41792275  0.21169815     0.15300
H1978       H  0.50944428  0.43068634  0.24038634     0.14100
H1979       H  0.57382087  0.49539226  0.22660420     0.11800
H1980       H  0.59229762  0.47989979  0.21756869     0.13800
C1981       C  0.47109490  0.56944239  0.21014522     0.19900
C1982       C  0.45759900  0.56824506  0.20406327    -0.18200
C1983       C  0.44412711  0.55404011  0.20341899    -0.10500
C1984       C  0.44401592  0.54072549  0.20867893     0.22100
C1985       C  0.45769976  0.54194687  0.21403890    -0.19800
C1986       C  0.47103266  0.55603605  0.21472457    -0.10700
C1987       C  0.43017251  0.52529744  0.20916585    -0.14800
C1988       C  0.41581802  0.52200168  0.20607642    -0.28700
C1989       C  0.48517631  0.58463289  0.21160571    -0.03000
C1990       C  0.49546686  0.58750058  0.22361527    -0.39500
H1991       H  0.45740295  0.57836384  0.20016649     0.13300
H1992       H  0.43393566  0.55363603  0.19891662     0.12900
H1993       H  0.45808270  0.53191744  0.21791699     0.12300
H1994       H  0.48131646  0.55634591  0.21878676     0.12600
H1995       H  0.43193215  0.51597966  0.21284035     0.15300
H1996       H  0.41332176  0.53075655  0.20224927     0.14100
H1997       H  0.48694182  0.59358770  0.20299227     0.11800
H1998       H  0.49319383  0.57879994  0.23279000     0.13800
C1999       C  0.42706887  0.41637766  0.22241682     0.19900
C2000       C  0.42691010  0.42403025  0.20801792    -0.18200
C2001       C  0.41964103  0.43265111  0.20789319    -0.10500
C2002       C  0.41220395  0.43376608  0.22225178     0.22100
C2003       C  0.41229571  0.42605417  0.23664820    -0.12600
C2004       C  0.41962511  0.41746769  0.23679219    -0.10700
C2005       C  0.40458791  0.44309433  0.22298341    -0.14800
C2006       C  0.40185123  0.44927717  0.20961233    -0.28700
C2007       C  0.43573988  0.40809193  0.22192463    -0.03000
C2008       C  0.43602832  0.39937448  0.23429202    -0.39500
H2009       H  0.43264244  0.42351875  0.19680194     0.13300
H2010       H  0.42022793  0.43858089  0.19657735     0.12900
H2011       H  0.40675738  0.42676911  0.24793083     0.12300
H2012       H  0.41957779  0.41202532  0.24829549     0.12600
H2013       H  0.40085701  0.44478118  0.23514444     0.15300
H2014       H  0.40496389  0.44756381  0.19719398     0.14100
H2015       H  0.44247113  0.40945452  0.21081639     0.11800
H2016       H  0.42932435  0.39739857  0.24548695     0.13800
C2017       C  0.34506486  0.25475768  0.98844883     0.19900
C2018       C  0.33253672  0.24827146  0.99927214    -0.18200
C2019       C  0.33443981  0.24974038  0.01652636    -0.10500
C2020       C  0.34905454  0.25757209  0.02362393     0.22100
C2021       C  0.36164775  0.26425914  0.01281121    -0.19800
C2022       C  0.35972480  0.26284825  0.99542600    -0.10700
C2023       C  0.35143376  0.25924871  0.04213010    -0.14800
C2024       C  0.34070729  0.25003661  0.05310095    -0.28700
C2025       C  0.34196621  0.25265368  0.97015706    -0.03000
C2026       C  0.35234736  0.25925641  0.95791884    -0.39500
H2027       H  0.32109658  0.24210724  0.99434632     0.13300
H2028       H  0.32430892  0.24491437  0.02412469     0.12900
H2029       H  0.37303835  0.27050220  0.01783724     0.12300
H2030       H  0.36974388  0.26802825  0.98764279     0.12600
H2031       H  0.36228545  0.26818973  0.04681906     0.15300
H2032       H  0.33005268  0.24070890  0.04861451     0.14100
H2033       H  0.33018243  0.24532587  0.96654022     0.11800
H2034       H  0.36423095  0.26679524  0.96077021     0.13800
C2035       C  0.39904753  0.30167279  0.15732135     0.19900
C2036       C  0.41229030  0.31518808  0.15280088    -0.18200
C2037       C  0.42198826  0.32546201  0.16492350    -0.10500
C2038       C  0.41871213  0.32243183  0.18198407     0.22100
C2039       C  0.40557626  0.30887110  0.18651999    -0.19800
C2040       C  0.39594349  0.29856160  0.17443107    -0.10700
C2041       C  0.42808708  0.33338554  0.19541600    -0.14800
C2042       C  0.44262971  0.34467637  0.19360768    -0.28700
C2043       C  0.38881116  0.29138547  0.14382127    -0.03000
C2044       C  0.37460941  0.27972263  0.14644726    -0.39500
H2045       H  0.41502972  0.31796517  0.13978168     0.13300
H2046       H  0.43177159  0.33591531  0.16082240     0.12900
H2047       H  0.40272456  0.30621717  0.19954680     0.12300
H2048       H  0.38615786  0.28823036  0.17871455     0.12600
H2049       H  0.42264718  0.33205740  0.20747342     0.15300
H2050       H  0.44856997  0.34608285  0.18191137     0.14100
H2051       H  0.39289031  0.29397438  0.13106583     0.11800
H2052       H  0.36992213  0.27715141  0.15891039     0.13800
C2053       C  0.15144859  0.33619495  0.11127508     0.19900
C2054       C  0.16568761  0.34866907  0.11544945    -0.18200
C2055       C  0.17877303  0.34732578  0.11544742    -0.10500
C2056       C  0.17802108  0.33346508  0.11097326     0.22100
C2057       C  0.16372215  0.32087107  0.10722050    -0.19800
C2058       C  0.15060027  0.32220530  0.10726932    -0.10700
C2059       C  0.19187975  0.33182206  0.10996887    -0.14800
C2060       C  0.20582301  0.34362593  0.10659752    -0.28700
C2061       C  0.13805772  0.33855532  0.11018468    -0.03000
C2062       C  0.12341819  0.32734158  0.11140499    -0.39500
H2063       H  0.16671338  0.35956771  0.11866932     0.13300
H2064       H  0.18943296  0.35718420  0.11899047     0.12900
H2065       H  0.16275500  0.31004312  0.10377998     0.12300
H2066       H  0.13993721  0.31239515  0.10364702     0.12600
H2067       H  0.19042728  0.32047304  0.11102700     0.15300
H2068       H  0.20722273  0.35482746  0.10447499     0.14100
H2069       H  0.14042303  0.35017984  0.10844356     0.11800
H2070       H  0.12072324  0.31576019  0.11403314     0.13800
C2071       C  0.25219404  0.35066871  0.98177457     0.19900
C2072       C  0.24205100  0.33817781  0.99142540    -0.18200
C2073       C  0.24290220  0.33878059  0.00879109    -0.10500
C2074       C  0.25412913  0.35190166  0.01702411     0.22100
C2075       C  0.26414321  0.36450640  0.00741376    -0.19800
C2076       C  0.26327843  0.36391201  0.98998969    -0.10700
C2077       C  0.25536564  0.35299037  0.03553886    -0.14800
C2078       C  0.24954270  0.34068962  0.04545844    -0.28700
C2079       C  0.25101775  0.34903542  0.96328884    -0.03000
C2080       C  0.25806268  0.36062017  0.95247337    -0.39500
H2081       H  0.23333711  0.32785999  0.98548986     0.13300
H2082       H  0.23455064  0.32899358  0.01561993     0.12900
H2083       H  0.27281709  0.37480635  0.01341074     0.12300
H2084       H  0.27149800  0.37375062  0.98313623     0.12600
H2085       H  0.26128690  0.36428675  0.04117901     0.15300
H2086       H  0.24410194  0.32930587  0.04012446     0.14100
H2087       H  0.24386961  0.33760367  0.95831585     0.11800
H2088       H  0.26495144  0.37226066  0.95683525     0.13800
C2089       C  0.32221488  0.42443096  0.16503361     0.19900
C2090       C  0.31164766  0.40960443  0.17012607    -0.18200
C2091       C  0.30173068  0.39872877  0.15875079    -0.10500
C2092       C  0.30198915  0.40241208  0.14185888     0.22100
C2093       C  0.31261363  0.41721266  0.13666217    -0.19800
C2094       C  0.32259853  0.42815691  0.14810322    -0.10700
C2095       C  0.29175669  0.39088264  0.12938081    -0.14800
C2096       C  0.27839932  0.37863694  0.13358536    -0.28700
C2097       C  0.33308460  0.43504339  0.17774134    -0.03000
C2098       C  0.34308169  0.44997177  0.17550747    -0.39500
H2099       H  0.31121253  0.40629366  0.18299945     0.13300
H2100       H  0.29419357  0.38734295  0.16324814     0.12900
H2101       H  0.31321250  0.42030833  0.12368889     0.12300
H2102       H  0.33072069  0.43931931  0.14350816     0.12600
H2103       H  0.29521682  0.39262333  0.11638005     0.15300
H2104       H  0.27441263  0.37714867  0.14636108     0.14100
H2105       H  0.33306574  0.43006633  0.18968774     0.11800
H2106       H  0.34342769  0.45559782  0.16396551     0.13800
C2107       C  0.29565434  0.28294909  0.11782804     0.19900
C2108       C  0.27981590  0.27641716  0.11639862    -0.18200
C2109       C  0.27313923  0.28564233  0.11500265    -0.10500
C2110       C  0.28222195  0.30165680  0.11513964     0.22100
C2111       C  0.29794598  0.30811611  0.11731599    -0.19800
C2112       C  0.30456246  0.29895373  0.11883990    -0.10700
C2113       C  0.27618264  0.31217232  0.11200516    -0.14800
C2114       C  0.26149292  0.30854013  0.11322995    -0.28700
C2115       C  0.30263227  0.27293252  0.11778449    -0.03000
C2116       C  0.31704696  0.27801705  0.11272850    -0.39500
H2117       H  0.27262869  0.26413803  0.11579082     0.13300
H2118       H  0.26099368  0.28018152  0.11322692     0.12900
H2119       H  0.30523206  0.32039563  0.11767247     0.12300
H2120       H  0.31670038  0.30455026  0.12073790     0.12600
H2121       H  0.28449752  0.32376396  0.10852441     0.15300
H2122       H  0.25287883  0.29730771  0.11730244     0.14100
H2123       H  0.29556137  0.26099492  0.12100798     0.11800
H2124       H  0.32388390  0.28967929  0.10854807     0.13800
C2125       C  0.47278782  0.12730208  0.66695021     0.19900
C2126       C  0.47453866  0.11484977  0.67129168    -0.18200
C2127       C  0.47164960  0.10918711  0.68760406    -0.10500
C2128       C  0.46673579  0.11577996  0.69995342     0.22100
C2129       C  0.46429487  0.12774273  0.69533291    -0.19800
C2130       C  0.46719105  0.13338910  0.67907356    -0.10700
C2131       C  0.46498078  0.11138742  0.71793263    -0.14800
C2132       C  0.46460754  0.09877942  0.72387091    -0.28700
C2133       C  0.47733333  0.13397123  0.64993092    -0.03000
C2134       C  0.48230398  0.14880353  0.64687184    -0.39500
H2135       H  0.47870727  0.10983981  0.66218228     0.13300
H2136       H  0.47382695  0.10005276  0.69050975     0.12900
H2137       H  0.46035544  0.13295626  0.70445250     0.12300
H2138       H  0.46512094  0.14259851  0.67611692     0.12600
H2139       H  0.46412750  0.11910872  0.72680549     0.15300
H2140       H  0.46485261  0.09049260  0.71541633     0.14100
H2141       H  0.47787896  0.12686922  0.64001849     0.11800
H2142       H  0.48295748  0.15630854  0.65696514     0.13800
C2143       C  0.42369588  0.01275634  0.77864661     0.19900
C2144       C  0.41527717  0.00287596  0.76557798    -0.18200
C2145       C  0.40800772  0.98704567  0.76747231    -0.10500
C2146       C  0.40895922  0.98065869  0.78260612     0.22100
C2147       C  0.41740411  0.99053609  0.79566573    -0.19800
C2148       C  0.42469809  0.00636422  0.79376388    -0.10700
C2149       C  0.40208252  0.96390585  0.78510762    -0.14800
C2150       C  0.39191474  0.95311899  0.77477282    -0.28700
C2151       C  0.43166993  0.02952136  0.77564099    -0.03000
C2152       C  0.43825368  0.04023496  0.78761687    -0.39500
H2153       H  0.41443337  0.00743188  0.75373068     0.13300
H2154       H  0.40200373  0.97999431  0.75687853     0.12900
H2155       H  0.41851437  0.98597891  0.80739584     0.12300
H2156       H  0.43131829  0.01339143  0.80409410     0.12600
H2157       H  0.40571909  0.96027480  0.79599370     0.15300
H2158       H  0.38770113  0.95617831  0.76398194     0.14100
H2159       H  0.43215170  0.03322765  0.76287798     0.11800
H2160       H  0.43779271  0.03709763  0.80054855     0.13800
C2161       C  0.33138846  0.15540051  0.89686574     0.19900
C2162       C  0.32310595  0.15939619  0.90789688    -0.18200
C2163       C  0.32358759  0.17345690  0.90660241    -0.10500
C2164       C  0.33263502  0.18401900  0.89437231     0.22100
C2165       C  0.34081354  0.17996819  0.88325369    -0.19800
C2166       C  0.34012382  0.16580276  0.88436482    -0.10700
C2167       C  0.33516286  0.19988491  0.89400360    -0.14800
C2168       C  0.32519493  0.20404286  0.89968405    -0.28700
C2169       C  0.33174650  0.14100279  0.89972339    -0.03000
C2170       C  0.33430701  0.13311570  0.88770209    -0.39500
H2171       H  0.31643659  0.15169921  0.91778330     0.13300
H2172       H  0.31743849  0.17628668  0.91566431     0.12900
H2173       H  0.34805365  0.18796069  0.87386291     0.12300
H2174       H  0.34696322  0.16333522  0.87590535     0.12600
H2175       H  0.34592049  0.20863391  0.88889956     0.15300
H2176       H  0.31399787  0.19545837  0.90390766     0.14100
H2177       H  0.32962035  0.13660959  0.91234319     0.11800
H2178       H  0.33549256  0.13670389  0.87482491     0.13800
C2179       C  0.39910442  0.10369398  0.85246830     0.19900
C2180       C  0.40274635  0.10962484  0.83630381    -0.18200
C2181       C  0.41445952  0.10943504  0.82723924    -0.10500
C2182       C  0.42273000  0.10300258  0.83400248     0.22100
C2183       C  0.41940999  0.09747693  0.85038949    -0.19800
C2184       C  0.40770412  0.09774045  0.85952166    -0.10700
C2185       C  0.43456962  0.10155968  0.82423892    -0.14800
C2186       C  0.43504998  0.10158480  0.80743415    -0.28700
C2187       C  0.38566446  0.10306734  0.86091665    -0.03000
C2188       C  0.38282254  0.10111450  0.87739651    -0.39500
H2189       H  0.39639582  0.11435767  0.83056652     0.13300
H2190       H  0.41692001  0.11434833  0.81494300     0.12900
H2191       H  0.42561013  0.09251829  0.85599204     0.12300
H2192       H  0.40514883  0.09280730  0.87181359     0.12600
H2193       H  0.44243514  0.09928566  0.83104145     0.15300
H2194       H  0.42668740  0.10281757  0.80035839     0.14100
H2195       H  0.37761707  0.10419875  0.85305465     0.11800
H2196       H  0.39086141  0.10052297  0.88573134     0.13800
C2197       C  0.15871850  0.81903716  0.90136951     0.19900
C2198       C  0.16054896  0.83279126  0.89509630    -0.18200
C2199       C  0.17486670  0.84611773  0.89494403    -0.10500
C2200       C  0.18772882  0.84599960  0.90121626     0.22100
C2201       C  0.18580518  0.83230587  0.90771591    -0.19800
C2202       C  0.17156656  0.81906441  0.90788848    -0.10700
C2203       C  0.20331891  0.85967949  0.90170535    -0.14800
C2204       C  0.20748674  0.87361249  0.89555636    -0.28700
C2205       C  0.14327761  0.80504976  0.90137546    -0.03000
C2206       C  0.14106744  0.79079390  0.90263433    -0.39500
H2207       H  0.15085764  0.83321238  0.89019796     0.13300
H2208       H  0.17569132  0.85638921  0.88999028     0.12900
H2209       H  0.19540281  0.83183907  0.91284143     0.12300
H2210       H  0.17074177  0.80900552  0.91346782     0.12600
H2211       H  0.21202311  0.85811156  0.90764879     0.15300
H2212       H  0.19934351  0.87585549  0.88942360     0.14100
H2213       H  0.13344807  0.80652309  0.90006324     0.11800
H2214       H  0.15073317  0.78903386  0.90330037     0.13800
C2215       C  0.29999200  0.89375619  0.85642905     0.19900
C2216       C  0.31431350  0.89607147  0.86104135    -0.18200
C2217       C  0.32409012  0.89520444  0.84923160    -0.10500
C2218       C  0.31971362  0.89185484  0.83241760     0.22100
C2219       C  0.30516377  0.88896990  0.82793295    -0.19800
C2220       C  0.29538732  0.88981343  0.83973830    -0.10700
C2221       C  0.33022737  0.89243870  0.81894488    -0.14800
C2222       C  0.34380112  0.89339442  0.82146240    -0.28700
C2223       C  0.29048058  0.89591638  0.86930827    -0.03000
C2224       C  0.27873804  0.89805251  0.86567971    -0.39500
H2225       H  0.31816678  0.89902240  0.87378844     0.13300
H2226       H  0.33520344  0.89769848  0.85333573     0.12900
H2227       H  0.30140433  0.88628031  0.81512573     0.12300
H2228       H  0.28431023  0.88741682  0.83560639     0.12600
H2229       H  0.32682599  0.89271128  0.80620330     0.15300
H2230       H  0.34749110  0.89273884  0.83389878     0.14100
H2231       H  0.29388532  0.89674714  0.88224888     0.11800
H2232       H  0.27546936  0.89797714  0.85285609     0.13800
C2233       C  0.30058441  0.01813776  0.88543011     0.19900
C2234       C  0.30703557  0.00887625  0.88238252    -0.18200
C2235       C  0.29824137  0.99297809  0.88305678    -0.10500
C2236       C  0.28267037  0.98581133  0.88701294     0.22100
C2237       C  0.27605847  0.99500847  0.88953073    -0.19800
C2238       C  0.28488931  0.01098630  0.88884686    -0.10700
C2239       C  0.27313844  0.96886320  0.88862877    -0.14800
C2240       C  0.27905380  0.96002900  0.89279283    -0.28700
C2241       C  0.31095509  0.03504654  0.88595057    -0.03000
C2242       C  0.30657104  0.04562932  0.88696579    -0.39500
H2243       H  0.31904176  0.01398025  0.87961189     0.13300
H2244       H  0.30373666  0.98638672  0.88039068     0.12900
H2245       H  0.26407830  0.98982468  0.89246770     0.12300
H2246       H  0.27940457  0.01758719  0.89143863     0.12600
H2247       H  0.26091177  0.96364794  0.88723804     0.15300
H2248       H  0.29110775  0.96525903  0.89534310     0.14100
H2249       H  0.32306121  0.03900195  0.88598081     0.11800
H2250       H  0.29465915  0.04232177  0.88658304     0.13800
C2251       C  0.48349644  0.13300087  0.30581654     0.19900
C2252       C  0.48952906  0.14873006  0.30805264    -0.18200
C2253       C  0.49326312  0.15528710  0.32395429    -0.10500
C2254       C  0.49133922  0.14624130  0.33799992     0.22100
C2255       C  0.48528737  0.13049421  0.33573499    -0.19800
C2256       C  0.48147556  0.12392896  0.31983624    -0.10700
C2257       C  0.49546897  0.15274081  0.35514120    -0.14800
C2258       C  0.50534135  0.16753478  0.35823437    -0.28700
C2259       C  0.47996443  0.12653921  0.28867711    -0.03000
C2260       C  0.46950817  0.11196357  0.28540783    -0.39500
H2261       H  0.49120601  0.15595991  0.29745827     0.13300
H2262       H  0.49745463  0.16738821  0.32510122     0.12900
H2263       H  0.48372487  0.12326145  0.34629132     0.12300
H2264       H  0.47728813  0.11182546  0.31857813     0.12600
H2265       H  0.49082309  0.14494268  0.36556210     0.15300
H2266       H  0.51079880  0.17541306  0.34807285     0.14100
H2267       H  0.48599772  0.13411262  0.27839620     0.11800
H2268       H  0.46282752  0.10441889  0.29541488     0.13800
C2269       C  0.42294030  0.01570649  0.23648742     0.19900
C2270       C  0.42702315  0.00627417  0.22760826    -0.18200
C2271       C  0.41772637  0.99043825  0.22774466    -0.10500
C2272       C  0.40403313  0.98361274  0.23682453     0.22100
C2273       C  0.40006975  0.99301389  0.24595976    -0.19800
C2274       C  0.40938130  0.00887931  0.24582735    -0.10700
C2275       C  0.39407079  0.96677772  0.23785213    -0.14800
C2276       C  0.39435829  0.95693106  0.22667853    -0.28700
C2277       C  0.43330277  0.03248350  0.23569371    -0.03000
C2278       C  0.42972822  0.04297342  0.24095994    -0.39500
H2279       H  0.43750189  0.01118319  0.22050922     0.13300
H2280       H  0.42154700  0.98366183  0.22102141     0.12900
H2281       H  0.38972160  0.98805013  0.25328663     0.12300
H2282       H  0.40593079  0.01559745  0.25323736     0.12600
H2283       H  0.38613412  0.96231815  0.24821387     0.15300
H2284       H  0.40160007  0.96104352  0.21576569     0.14100
H2285       H  0.44437955  0.03641583  0.23001336     0.11800
H2286       H  0.41878385  0.03967097  0.24652237     0.13800
C2287       C  0.18210315  0.85217119  0.11626893     0.19900
C2288       C  0.17930232  0.83800172  0.12225796    -0.18200
C2289       C  0.16454987  0.82547971  0.12281909    -0.10500
C2290       C  0.15212360  0.82670106  0.11712914     0.22100
C2291       C  0.15481438  0.84100847  0.11169001    -0.19800
C2292       C  0.16962678  0.85359804  0.11116416    -0.10700
C2293       C  0.13637690  0.81323446  0.11646665    -0.14800
C2294       C  0.13369147  0.79884737  0.11448379    -0.28700
C2295       C  0.19823797  0.86467952  0.11456503    -0.03000
C2296       C  0.20280281  0.87963040  0.11297300    -0.39500
H2297       H  0.18863075  0.83655434  0.12640190     0.13300
H2298       H  0.16296848  0.81485976  0.12770191     0.12900
H2299       H  0.14547406  0.84233459  0.10732980     0.12300
H2300       H  0.17125554  0.86421523  0.10623282     0.12600
H2301       H  0.12684354  0.81527732  0.11646372     0.15300
H2302       H  0.14319020  0.79683730  0.11322813     0.14100
H2303       H  0.20687099  0.86132322  0.11466724     0.11800
H2304       H  0.19460121  0.88351169  0.11350628     0.13800
C2305       C  0.25555206  0.91262996  0.02007558     0.19900
C2306       C  0.25485175  0.92311872  0.00934283    -0.18200
C2307       C  0.25650427  0.92226901  0.99215103    -0.10500
C2308       C  0.25868886  0.91069661  0.98514714     0.22100
C2309       C  0.25970309  0.90036036  0.99586003    -0.19800
C2310       C  0.25805529  0.90121327  0.01313145    -0.10700
C2311       C  0.25996018  0.90919041  0.96678996    -0.14800
C2312       C  0.25340950  0.91407079  0.95579877    -0.28700
C2313       C  0.25333166  0.91402632  0.03825731    -0.03000
C2314       C  0.25648676  0.90689907  0.05033968    -0.39500
H2315       H  0.25307009  0.93210824  0.01429501     0.13300
H2316       H  0.25621800  0.93082741  0.98445285     0.12900
H2317       H  0.26146679  0.89138891  0.99081462     0.12300
H2318       H  0.25848477  0.89274720  0.02082818     0.12600
H2319       H  0.26581155  0.90334149  0.96224513     0.15300
H2320       H  0.24674645  0.91907533  0.96023030     0.14100
H2321       H  0.24922970  0.92171031  0.04191676     0.11800
H2322       H  0.26103391  0.89949420  0.04733901     0.13800
C2323       C  0.29430585  0.90067806  0.15595115     0.19900
C2324       C  0.29046421  0.89452357  0.17204960    -0.18200
C2325       C  0.30094646  0.89296061  0.18187624    -0.10500
C2326       C  0.31564439  0.89759920  0.17584356     0.22100
C2327       C  0.31934454  0.90326346  0.15957394    -0.19800
C2328       C  0.30890620  0.90490923  0.14977267    -0.10700
C2329       C  0.32753380  0.89708852  0.18618107    -0.14800
C2330       C  0.32790043  0.89810917  0.20293784    -0.28700
C2331       C  0.28284208  0.90270916  0.14637433    -0.03000
C2332       C  0.28459536  0.90751315  0.13048102    -0.39500
H2333       H  0.27929412  0.89099745  0.17713780     0.13300
H2334       H  0.29746900  0.88810112  0.19414858     0.12900
H2335       H  0.33055301  0.90684707  0.15456035     0.12300
H2336       H  0.31256361  0.90974312  0.13754803     0.12600
H2337       H  0.33709599  0.89734930  0.17970405     0.15300
H2338       H  0.31898463  0.89887479  0.20962966     0.14100
H2339       H  0.27237543  0.90012066  0.15279964     0.11800
H2340       H  0.29472088  0.91004561  0.12347771     0.13800
C2341       C  0.33974342  0.15824312  0.11854241     0.19900
C2342       C  0.32652457  0.15940202  0.11781288    -0.18200
C2343       C  0.32738422  0.17371342  0.11778442    -0.10500
C2344       C  0.34156137  0.18725154  0.11868057     0.22100
C2345       C  0.35468567  0.18601331  0.12010192    -0.19800
C2346       C  0.35382480  0.17176951  0.12013470    -0.10700
C2347       C  0.34350913  0.20287427  0.11714593    -0.14800
C2348       C  0.33231247  0.20638760  0.11807555    -0.28700
C2349       C  0.33853043  0.14288239  0.11729440    -0.03000
C2350       C  0.34985981  0.14089752  0.11125999    -0.39500
H2351       H  0.31550291  0.14919504  0.11672967     0.13300
H2352       H  0.31697185  0.17405293  0.11654924     0.12900
H2353       H  0.36576406  0.19618015  0.12098363     0.12300
H2354       H  0.36425846  0.17145933  0.12138190     0.12600
H2355       H  0.35501244  0.21211359  0.11492562     0.15300
H2356       H  0.32073236  0.19767847  0.12081978     0.14100
H2357       H  0.32770557  0.13289202  0.12028121     0.11800
H2358       H  0.36035371  0.15070993  0.10715272     0.13800
C2359       C  0.34634589  0.09747454  0.98192766     0.19900
C2360       C  0.35959373  0.10434639  0.99160812    -0.18200
C2361       C  0.35877654  0.10420043  0.00900950    -0.10500
C2362       C  0.34459108  0.09712005  0.01715737     0.22100
C2363       C  0.33135357  0.09051015  0.00746532    -0.19800
C2364       C  0.33217005  0.09067035  0.99008539    -0.10700
C2365       C  0.34297671  0.09665450  0.03561844    -0.14800
C2366       C  0.35421364  0.09936872  0.04630684    -0.28700
C2367       C  0.34782288  0.09826303  0.96344976    -0.03000
C2368       C  0.33651712  0.08920830  0.95301406    -0.39500
H2369       H  0.37065947  0.10990231  0.98567069     0.13300
H2370       H  0.36929220  0.10987490  0.01589318     0.12900
H2371       H  0.32027663  0.08519378  0.01337776     0.12300
H2372       H  0.32164829  0.08572504  0.98321244     0.12600
H2373       H  0.33183282  0.09349474  0.04064785     0.15300
H2374       H  0.36536609  0.10209842  0.04182397     0.14100
H2375       H  0.35873030  0.10657680  0.95822512     0.11800
H2376       H  0.32568189  0.08040943  0.95779340     0.13800
C2377       C  0.41889668  0.09714949  0.17699281     0.19900
C2378       C  0.41688420  0.09204346  0.16040950    -0.18200
C2379       C  0.40592694  0.09248101  0.15034779    -0.10500
C2380       C  0.39660624  0.09800631  0.15670668     0.22100
C2381       C  0.39851961  0.10295733  0.17337487    -0.19800
C2382       C  0.40954509  0.10258574  0.18341708    -0.10700
C2383       C  0.38440484  0.09822404  0.14666732    -0.14800
C2384       C  0.38375030  0.09731043  0.12992311    -0.28700
C2385       C  0.42997260  0.09546614  0.18749597    -0.03000
C2386       C  0.43641869  0.10377259  0.20133557    -0.39500
H2387       H  0.42374455  0.08753841  0.15524193     0.13300
H2388       H  0.40460198  0.08808039  0.13778967     0.12900
H2389       H  0.39136262  0.10703987  0.17870532     0.12300
H2390       H  0.41036995  0.10612564  0.19629966     0.12600
H2391       H  0.37575265  0.09949098  0.15334310     0.15300
H2392       H  0.39253250  0.09667990  0.12283104     0.14100
H2393       H  0.43284263  0.08686778  0.18368335     0.11800
H2394       H  0.43422698  0.11283267  0.20508315     0.13800
C2395       C  0.30028288  0.02221794  0.11018469     0.19900
C2396       C  0.30180148  0.01213535  0.12083731    -0.18200
C2397       C  0.29225056  0.99632788  0.11932552    -0.10500
C2398       C  0.28097943  0.99014655  0.10692096     0.22100
C2399       C  0.27930690  0.00025496  0.09641741    -0.19800
C2400       C  0.28874914  0.01610501  0.09808409    -0.10700
C2401       C  0.27186895  0.97334815  0.10359687    -0.14800
C2402       C  0.26921601  0.96262305  0.11506502    -0.28700
C2403       C  0.31197733  0.03875323  0.11082520    -0.03000
C2404       C  0.30971831  0.05014481  0.10575737    -0.39500
H2405       H  0.31070922  0.01650376  0.13012266     0.13300
H2406       H  0.29425782  0.98902397  0.12738832     0.12900
H2407       H  0.27087630  0.99585214  0.08661286     0.12300
H2408       H  0.28746301  0.02346887  0.08937290     0.12600
H2409       H  0.26745268  0.96969652  0.09108270     0.15300
H2410       H  0.27288401  0.96598524  0.12782539     0.14100
H2411       H  0.32309559  0.04164878  0.11558900     0.11800
H2412       H  0.29850695  0.04770741  0.10189120     0.13800
C2413       C  0.46730461  0.89931631  0.78209648     0.19900
C2414       C  0.46093044  0.90391897  0.76956634    -0.18200
C2415       C  0.44665575  0.90251967  0.77163004    -0.10500
C2416       C  0.43838980  0.89664553  0.78644779     0.22100
C2417       C  0.44445759  0.89151910  0.79881385    -0.19800
C2418       C  0.45885313  0.89294012  0.79675199    -0.10700
C2419       C  0.42345676  0.89580431  0.78902074    -0.14800
C2420       C  0.42062920  0.90636155  0.78256991    -0.28700
C2421       C  0.48299315  0.90210123  0.77935841    -0.03000
C2422       C  0.48990184  0.89611817  0.78832825    -0.39500
H2423       H  0.46707629  0.90872429  0.75808385     0.13300
H2424       H  0.44210381  0.90602494  0.76153759     0.12900
H2425       H  0.43823476  0.88680436  0.81027054     0.12300
H2426       H  0.46338954  0.88938468  0.80678705     0.12600
H2427       H  0.41482260  0.88657706  0.79641233     0.15300
H2428       H  0.42959853  0.91602053  0.77599868     0.14100
H2429       H  0.48923489  0.90954631  0.76905565     0.11800
H2430       H  0.48407316  0.88834757  0.79847985     0.13800
C2431       C  0.65515236  0.14629786  0.67232744     0.19900
C2432       C  0.65235918  0.15192918  0.68719160    -0.18200
C2433       C  0.64877457  0.14355563  0.70193233    -0.10500
C2434       C  0.64805042  0.12930401  0.70225080     0.22100
C2435       C  0.65113885  0.12378179  0.68746835    -0.19800
C2436       C  0.65471583  0.13217023  0.67268353    -0.10700
C2437       C  0.64302240  0.11941756  0.71731162    -0.14800
C2438       C  0.64299326  0.12448755  0.73290640    -0.28700
C2439       C  0.65855460  0.15566323  0.65695036    -0.03000
C2440       C  0.65781434  0.15043872  0.64125483    -0.39500
H2441       H  0.65262942  0.16277417  0.68733873     0.13300
H2442       H  0.64612432  0.14812989  0.71283566     0.12900
H2443       H  0.65067006  0.11284110  0.68732172     0.12300
H2444       H  0.65715265  0.12754004  0.66167739     0.12600
H2445       H  0.63889627  0.10732318  0.71539202     0.15300
H2446       H  0.64772063  0.13656605  0.73541038     0.14100
H2447       H  0.66129059  0.16743745  0.65866049     0.11800
H2448       H  0.65464607  0.13864620  0.63893865     0.13800
C2449       C  0.53329682  0.10115577  0.79019675     0.19900
C2450       C  0.53812993  0.09325564  0.80046240    -0.18200
C2451       C  0.55252852  0.09481252  0.79840432    -0.10500
C2452       C  0.56237773  0.10422116  0.78582962     0.22100
C2453       C  0.55765032  0.11238074  0.77580531    -0.19800
C2454       C  0.54331721  0.11096498  0.77800996    -0.10700
C2455       C  0.57686227  0.10458212  0.78163994    -0.14800
C2456       C  0.58447310  0.10050148  0.79215873    -0.28700
C2457       C  0.51714120  0.09728376  0.79094749    -0.03000
C2458       C  0.51211325  0.10675106  0.78631184    -0.39500
H2459       H  0.53052810  0.08545113  0.80977072     0.13300
H2460       H  0.55551443  0.08801187  0.80611695     0.12900
H2461       H  0.56490852  0.11954102  0.76588356     0.12300
H2462       H  0.53981781  0.11689614  0.76956456     0.12600
H2463       H  0.58125663  0.10803018  0.76909097     0.15300
H2464       H  0.58079913  0.09766071  0.80498461     0.14100
H2465       H  0.50892887  0.08582951  0.79495935     0.11800
H2466       H  0.52010094  0.11853367  0.78324088     0.13800
C2467       C  0.56987087  0.98539527  0.77227864     0.19900
C2468       C  0.57559031  0.99460290  0.75811130    -0.18200
C2469       C  0.58273256  0.01049400  0.75941895    -0.10500
C2470       C  0.58427352  0.01757596  0.77503040     0.22100
C2471       C  0.57840221  0.00837388  0.78915251    -0.19800
C2472       C  0.57131660  0.99251758  0.78786302    -0.10700
C2473       C  0.59248471  0.03441601  0.77742543    -0.14800
C2474       C  0.59666354  0.04460340  0.76503539    -0.28700
C2475       C  0.56307631  0.96857670  0.77023595    -0.03000
C2476       C  0.55603426  0.95846153  0.78250600    -0.39500
H2477       H  0.57473548  0.98948623  0.74596054     0.13300
H2478       H  0.58730474  0.01705760  0.74820526     0.12900
H2479       H  0.57948650  0.01349596  0.80134965     0.12300
H2480       H  0.56737116  0.98610819  0.79923962     0.12600
H2481       H  0.59515133  0.03865413  0.79016144     0.15300
H2482       H  0.59381881  0.04095157  0.75219694     0.14100
H2483       H  0.56401651  0.96432420  0.75805852     0.11800
H2484       H  0.55457628  0.96209503  0.79475543     0.13800
C2485       C  0.66976855  0.82553370  0.88509614     0.19900
C2486       C  0.68009421  0.83907104  0.87693865    -0.18200
C2487       C  0.67891991  0.85231010  0.87847887    -0.10500
C2488       C  0.66739471  0.85229329  0.88837838     0.22100
C2489       C  0.65715766  0.83877061  0.89652201    -0.19800
C2490       C  0.65831358  0.82563002  0.89497633    -0.10700
C2491       C  0.66567467  0.86596905  0.89126950    -0.14800
C2492       C  0.67350023  0.87951858  0.88352194    -0.28700
C2493       C  0.67172409  0.81181411  0.88407897    -0.03000
C2494       C  0.66025494  0.79757091  0.88707940    -0.39500
H2495       H  0.68916299  0.83943013  0.86942476     0.13300
H2496       H  0.68719642  0.86248710  0.87214018     0.12900
H2497       H  0.64826662  0.83839434  0.90438733     0.12300
H2498       H  0.65045117  0.81574613  0.90204003     0.12600
H2499       H  0.65727409  0.86472980  0.90052339     0.15300
H2500       H  0.68193737  0.88139956  0.87410140     0.14100
H2501       H  0.68292058  0.81352397  0.88113877     0.11800
H2502       H  0.64888672  0.79565794  0.88922265     0.13800
C2503       C  0.60875019  0.90509467  0.84769886     0.19900
C2504       C  0.60726546  0.90159672  0.83062220    -0.18200
C2505       C  0.59464765  0.89973008  0.82174330    -0.10500
C2506       C  0.58327987  0.90158920  0.82972462     0.22100
C2507       C  0.58455341  0.90468869  0.84688853    -0.19800
C2508       C  0.59717261  0.90653863  0.85578663    -0.10700
C2509       C  0.57023188  0.90083425  0.82050934    -0.14800
C2510       C  0.57093131  0.90402505  0.80419768    -0.28700
C2511       C  0.62282319  0.90781727  0.85635429    -0.03000
C2512       C  0.62401068  0.90727077  0.87298313    -0.39500
H2513       H  0.61595250  0.90034118  0.82408346     0.13300
H2514       H  0.59388591  0.89682851  0.80866024     0.12900
H2515       H  0.57596575  0.90615895  0.85335945     0.12300
H2516       H  0.59796695  0.90955874  0.86882585     0.12600
H2517       H  0.56025634  0.89883116  0.82759899     0.15300
H2518       H  0.58116672  0.90700521  0.79713807     0.14100
H2519       H  0.63260376  0.91023406  0.84864582     0.11800
H2520       H  0.61429709  0.90428039  0.88098310     0.13800
C2521       C  0.84315828  0.19133172  0.88732200     0.19900
C2522       C  0.82882931  0.18920375  0.88319927    -0.18200
C2523       C  0.81611983  0.17458632  0.88224173    -0.10500
C2524       C  0.81731463  0.16162369  0.88583516     0.22100
C2525       C  0.83175114  0.16371013  0.88950900    -0.19800
C2526       C  0.84454782  0.17839232  0.89029261    -0.10700
C2527       C  0.80376193  0.14591290  0.88624425    -0.14800
C2528       C  0.78950303  0.14329495  0.88855350    -0.28700
C2529       C  0.85596425  0.20722418  0.88963041    -0.03000
C2530       C  0.87080927  0.21152727  0.88827459    -0.39500
H2531       H  0.82743217  0.19895004  0.88077936     0.13300
H2532       H  0.80542299  0.17360037  0.87870168     0.12900
H2533       H  0.83306308  0.15397076  0.89225934     0.12300
H2534       H  0.85534516  0.17957568  0.89381143     0.12600
H2535       H  0.80566002  0.13625608  0.88573844     0.15300
H2536       H  0.78746580  0.15277677  0.89007307     0.14100
H2537       H  0.85292582  0.21588305  0.89254557     0.11800
H2538       H  0.87422109  0.20331550  0.88461487     0.13800
C2539       C  0.67466945  0.10424205  0.83067397     0.19900
C2540       C  0.67229589  0.09913274  0.84719366    -0.18200
C2541       C  0.68400019  0.09905394  0.85625032    -0.10500
C2542       C  0.69842173  0.10434000  0.84898448     0.22100
C2543       C  0.70084462  0.10979126  0.83260780    -0.19800
C2544       C  0.68916901  0.10984447  0.82358048    -0.10700
C2545       C  0.71100100  0.10367079  0.85759805    -0.14800
C2546       C  0.71199113  0.10279262  0.87421848    -0.28700
C2547       C  0.66184593  0.10342708  0.82100939    -0.03000
C2548       C  0.66050605  0.10075434  0.80449128    -0.39500
H2549       H  0.66122572  0.09477075  0.85293720     0.13300
H2550       H  0.68153819  0.09444379  0.86869718     0.12900
H2551       H  0.71183820  0.11399018  0.82672500     0.12300
H2552       H  0.69154730  0.11430643  0.81105372     0.12600
H2553       H  0.72002933  0.10414710  0.84981933     0.15300
H2554       H  0.70355799  0.10298640  0.88241260     0.14100
H2555       H  0.65281884  0.10398270  0.82775005     0.11800
H2556       H  0.66885341  0.09895293  0.79790283     0.13800
C2557       C  0.70607471  0.99287532  0.88534198     0.19900
C2558       C  0.70527628  0.00247493  0.87335087    -0.18200
C2559       C  0.71425230  0.01839002  0.87483451    -0.10500
C2560       C  0.72387362  0.02496005  0.88863709     0.22100
C2561       C  0.72488743  0.01534593  0.90039816    -0.19800
C2562       C  0.71622906  0.99949298  0.89870468    -0.10700
C2563       C  0.73108287  0.04149645  0.89255586    -0.14800
C2564       C  0.73640845  0.05268554  0.88116123    -0.28700
C2565       C  0.69519052  0.97616811  0.88475725    -0.03000
C2566       C  0.69888392  0.96581045  0.88990447    -0.39500
H2567       H  0.69741713  0.99764733  0.86303958     0.13300
H2568       H  0.71296932  0.02550726  0.86576558     0.12900
H2569       H  0.73204261  0.02014015  0.91126915     0.12300
H2570       H  0.71686692  0.99245682  0.90837033     0.12600
H2571       H  0.73182743  0.04458128  0.90566623     0.15300
H2572       H  0.73688566  0.05014422  0.86807551     0.14100
H2573       H  0.68378976  0.97233218  0.88019212     0.11800
H2574       H  0.71053871  0.96949969  0.89335260     0.13800
C2575       C  0.65998236  0.81808579  0.10175060     0.19900
C2576       C  0.64999128  0.82156396  0.09343805    -0.18200
C2577       C  0.65185757  0.83619448  0.09410553    -0.10500
C2578       C  0.66371157  0.84791595  0.10338131     0.22100
C2579       C  0.67394380  0.84460168  0.11151970    -0.19800
C2580       C  0.67209206  0.82983924  0.11080774    -0.10700
C2581       C  0.66568445  0.86363111  0.10428292    -0.14800
C2582       C  0.65383105  0.86600681  0.10248904    -0.28700
C2583       C  0.65710089  0.80208421  0.10018945    -0.03000
C2584       C  0.66582262  0.79668277  0.10635413    -0.39500
H2585       H  0.64067547  0.81289847  0.08618322     0.13300
H2586       H  0.64407374  0.83827681  0.08700722     0.12900
H2587       H  0.68330138  0.85341724  0.11859291     0.12300
H2588       H  0.68012666  0.82776535  0.11737468     0.12600
H2589       H  0.67693662  0.87328850  0.10657059     0.15300
H2590       H  0.64249719  0.85626130  0.10113774     0.14100
H2591       H  0.64710786  0.79420016  0.09311180     0.11800
H2592       H  0.67597898  0.80401649  0.11342500     0.13800
C2593       C  0.65708303  0.91128734  0.01589297     0.19900
C2594       C  0.66833082  0.91065539  0.00624665    -0.18200
C2595       C  0.66772126  0.91050767  0.98886736    -0.10500
C2596       C  0.65589653  0.91122254  0.98065915     0.22100
C2597       C  0.64449154  0.91158377  0.99027180    -0.19800
C2598       C  0.64509952  0.91173661  0.00768787    -0.10700
C2599       C  0.65505764  0.91152238  0.96217406    -0.14800
C2600       C  0.66732690  0.91647745  0.95225004    -0.28700
C2601       C  0.65853287  0.91168953  0.03436117    -0.03000
C2602       C  0.64723603  0.90897169  0.04510541    -0.39500
H2603       H  0.67763145  0.91018586  0.01219441     0.13300
H2604       H  0.67645321  0.90965475  0.98198816     0.12900
H2605       H  0.63521258  0.91205298  0.98427447     0.12300
H2606       H  0.63631008  0.91249575  0.01453339     0.12600
H2607       H  0.64408930  0.90811050  0.95659818     0.15300
H2608       H  0.67849431  0.92058481  0.95757069     0.14100
H2609       H  0.66936028  0.91386458  0.03935827     0.11800
H2610       H  0.63610230  0.90622769  0.04067801     0.13800
C2611       C  0.83689764  0.18324583  0.10976637     0.19900
C2612       C  0.82240817  0.18085671  0.11382278    -0.18200
C2613       C  0.80967753  0.16619945  0.11360530    -0.10500
C2614       C  0.81103075  0.15346746  0.10894713     0.22100
C2615       C  0.82559408  0.15580164  0.10525920    -0.19800
C2616       C  0.83839149  0.17050851  0.10559637    -0.10700
C2617       C  0.79756367  0.13771151  0.10776169    -0.14800
C2618       C  0.78325555  0.13495306  0.10556616    -0.28700
C2619       C  0.84982785  0.19925369  0.10904744    -0.03000
C2620       C  0.86464427  0.20342200  0.11042698    -0.39500
H2621       H  0.82090944  0.19042596  0.11716879     0.13300
H2622       H  0.79885004  0.16497548  0.11717025     0.12900
H2623       H  0.82703269  0.14623842  0.10171257     0.12300
H2624       H  0.84929951  0.17188102  0.10209858     0.12600
H2625       H  0.79957138  0.12811944  0.10792098     0.15300
H2626       H  0.78112026  0.14439372  0.10449170     0.14100
H2627       H  0.84689762  0.20814288  0.10753240     0.11800
H2628       H  0.86795550  0.19493142  0.11270919     0.13800
C2629       C  0.74351542  0.09528670  0.98042873     0.19900
C2630       C  0.73030902  0.08982137  0.99018192    -0.18200
C2631       C  0.73090502  0.08889401  0.00752714    -0.10500
C2632       C  0.74484085  0.09359500  0.01557478     0.22100
C2633       C  0.75804446  0.09910172  0.00581769    -0.19800
C2634       C  0.75745118  0.10003875  0.98849726    -0.10700
C2635       C  0.74618437  0.09266614  0.03395600    -0.14800
C2636       C  0.73551306  0.09104632  0.04511609    -0.28700
C2637       C  0.74229443  0.09617591  0.96201523    -0.03000
C2638       C  0.75290014  0.09720361  0.95111644    -0.39500
H2639       H  0.71942141  0.08609639  0.98432949     0.13300
H2640       H  0.72038760  0.08426807  0.01444163     0.12900
H2641       H  0.76894556  0.10284148  0.01164912     0.12300
H2642       H  0.76799043  0.10473251  0.98161464     0.12600
H2643       H  0.75675286  0.09383318  0.03856894     0.15300
H2644       H  0.72508986  0.09050812  0.04111640     0.14100
H2645       H  0.73200175  0.09550634  0.95720156     0.11800
H2646       H  0.76295133  0.09713860  0.95543713     0.13800
C2647       C  0.71483643  0.01571808  0.11046666     0.19900
C2648       C  0.70041070  0.00608688  0.11722932    -0.18200
C2649       C  0.69449364  0.99033914  0.11775341    -0.10500
C2650       C  0.70271546  0.98368256  0.11114383     0.22100
C2651       C  0.71751151  0.99334544  0.10517814    -0.19800
C2652       C  0.72353081  0.00923910  0.10477249    -0.10700
C2653       C  0.69565198  0.96673728  0.10970131    -0.14800
C2654       C  0.68067703  0.95794047  0.10671862    -0.28700
C2655       C  0.71957248  0.03210904  0.10831288    -0.03000
C2656       C  0.73400088  0.04363507  0.10678408    -0.39500
H2657       H  0.69352221  0.01075386  0.12187011     0.13300
H2658       H  0.68331979  0.98337143  0.12310701     0.12900
H2659       H  0.72415535  0.98854861  0.10015226     0.12300
H2660       H  0.73464026  0.01629110  0.09932822     0.12600
H2661       H  0.70284239  0.96162184  0.10996341     0.15300
H2662       H  0.67387275  0.96337521  0.10511749     0.14100
H2663       H  0.71049782  0.03485293  0.10822526     0.11800
H2664       H  0.74345089  0.04154821  0.10783581     0.13800
C2665       C  0.44981288  0.89072837  0.21699509     0.19900
C2666       C  0.43863377  0.88545066  0.22950089    -0.18200
C2667       C  0.42566922  0.88684041  0.22784681    -0.10500
C2668       C  0.42374738  0.89380639  0.21373082     0.22100
C2669       C  0.43480846  0.89893713  0.20114003    -0.19800
C2670       C  0.44764537  0.89730260  0.20264771    -0.10700
C2671       C  0.41149595  0.89771774  0.21299042    -0.14800
C2672       C  0.39757949  0.88892351  0.21953843    -0.28700
C2673       C  0.46420493  0.89062874  0.22008565    -0.03000
C2674       C  0.47362762  0.89107853  0.20793192    -0.39500
H2675       H  0.44012209  0.88057283  0.24079070     0.13300
H2676       H  0.41757748  0.88319907  0.23800979     0.12900
H2677       H  0.43370274  0.90459575  0.19030042     0.12300
H2678       H  0.45617094  0.90191017  0.19294667     0.12600
H2679       H  0.41432002  0.90861143  0.20753209     0.15300
H2680       H  0.39429935  0.87763329  0.22413886     0.14100
H2681       H  0.46728840  0.89044896  0.23298336     0.11800
H2682       H  0.47045385  0.89045210  0.19495556     0.13800
C2683       C  0.59442583  0.89919417  0.14645357     0.19900
C2684       C  0.57877827  0.89144269  0.14307714    -0.18200
C2685       C  0.56838573  0.89148518  0.15463790    -0.10500
C2686       C  0.57345736  0.89943083  0.16988091     0.22100
C2687       C  0.58912545  0.90727434  0.17315437    -0.19800
C2688       C  0.59948238  0.90717607  0.16164698    -0.10700
C2689       C  0.56308114  0.90056969  0.18236676    -0.14800
C2690       C  0.54779837  0.89191906  0.18233178    -0.28700
C2691       C  0.60519751  0.89954188  0.13349130    -0.03000
C2692       C  0.61931746  0.90227931  0.13692209    -0.39500
H2693       H  0.57457320  0.88539520  0.13136979     0.13300
H2694       H  0.55650290  0.88558252  0.15132634     0.12900
H2695       H  0.59342896  0.91369084  0.18464427     0.12300
H2696       H  0.61145176  0.91375302  0.16453855     0.12600
H2697       H  0.56838698  0.90908765  0.19217555     0.15300
H2698       H  0.54201946  0.88304670  0.17304029     0.14100
H2699       H  0.60133075  0.89744555  0.12064617     0.11800
H2700       H  0.62314724  0.90364910  0.14972426     0.13800
C2701       C  0.65979087  0.13834762  0.32842703     0.19900
C2702       C  0.66353586  0.14497960  0.31257979    -0.18200
C2703       C  0.65896341  0.13592824  0.29818257    -0.10500
C2704       C  0.65024614  0.11994524  0.29932154     0.22100
C2705       C  0.64688915  0.11329178  0.31518263    -0.19800
C2706       C  0.65153464  0.12235679  0.32959915    -0.10700
C2707       C  0.64403358  0.10983176  0.28442869    -0.14800
C2708       C  0.64234714  0.11464175  0.26942871    -0.28700
C2709       C  0.66378106  0.14854094  0.34325070    -0.03000
C2710       C  0.66477825  0.14446234  0.35891346    -0.39500
H2711       H  0.66994105  0.15727141  0.31132194     0.13300
H2712       H  0.66225886  0.14156465  0.28627905     0.12900
H2713       H  0.64022431  0.10101260  0.31644353     0.12300
H2714       H  0.64815229  0.11679759  0.34154739     0.12600
H2715       H  0.63959305  0.09769298  0.28622567     0.15300
H2716       H  0.64602974  0.12655592  0.26733695     0.14100
H2717       H  0.66608215  0.16009688  0.34108100     0.11800
H2718       H  0.66330870  0.13329347  0.36146002     0.13800
C2719       C  0.52579266  0.08905644  0.22572283     0.19900
C2720       C  0.52803712  0.07752975  0.23232180    -0.18200
C2721       C  0.54189860  0.07791345  0.23040136    -0.10500
C2722       C  0.55403735  0.08995382  0.22189130     0.22100
C2723       C  0.55173201  0.10129399  0.21484333    -0.19800
C2724       C  0.53780625  0.10094554  0.21681455    -0.10700
C2725       C  0.56903489  0.09070663  0.22006226    -0.14800
C2726       C  0.57433806  0.08502977  0.23166468    -0.28700
C2727       C  0.51089108  0.08819745  0.22899944    -0.03000
C2728       C  0.50615578  0.09728017  0.22227906    -0.39500
H2729       H  0.51899793  0.06813762  0.23908500     0.13300
H2730       H  0.54299512  0.06864463  0.23548258     0.12900
H2731       H  0.56084217  0.11062308  0.20808640     0.12300
H2732       H  0.53668033  0.11011919  0.21156677     0.12600
H2733       H  0.57602311  0.09643468  0.20927973     0.15300
H2734       H  0.56785119  0.08026230  0.24299876     0.14100
H2735       H  0.50326460  0.07938823  0.23754659     0.11800
H2736       H  0.51313889  0.10603022  0.21341511     0.13800
C2737       C  0.55978521  0.97508952  0.22993118     0.19900
C2738       C  0.57416532  0.98367069  0.23722303    -0.18200
C2739       C  0.58194778  0.99960799  0.23657932    -0.10500
C2740       C  0.57535361  0.00730547  0.22877630     0.22100
C2741       C  0.56082946  0.99869972  0.22181394    -0.19800
C2742       C  0.55307503  0.98279916  0.22244886    -0.10700
C2743       C  0.58330500  0.02416022  0.22700800    -0.14800
C2744       C  0.59560998  0.03398244  0.23581325    -0.28700
C2745       C  0.55208962  0.95817419  0.23040899    -0.03000
C2746       C  0.54170427  0.94920676  0.21907791    -0.39500
H2747       H  0.57954900  0.97800566  0.24312506     0.13300
H2748       H  0.59320938  0.00571646  0.24185642     0.12900
H2749       H  0.55542973  0.00431363  0.21582806     0.12300
H2750       H  0.54179188  0.97665292  0.21719797     0.12600
H2751       H  0.57855970  0.02873717  0.21819034     0.15300
H2752       H  0.60028401  0.02998952  0.24531917     0.14100
H2753       H  0.55558826  0.95297407  0.23988927     0.11800
H2754       H  0.53870475  0.95419031  0.20893139     0.13800
C2755       C  0.68941258  0.09085077  0.14881606     0.19900
C2756       C  0.68007439  0.09726990  0.14653143    -0.18200
C2757       C  0.66974104  0.09614656  0.15891043    -0.10500
C2758       C  0.66841122  0.08838944  0.17386941     0.22100
C2759       C  0.67765225  0.08184232  0.17600338    -0.19800
C2760       C  0.68795883  0.08299134  0.16368473    -0.10700
C2761       C  0.65751185  0.08646683  0.18752130    -0.14800
C2762       C  0.64790742  0.09206227  0.18761283    -0.28700
C2763       C  0.70003101  0.09193699  0.13523927    -0.03000
C2764       C  0.71253524  0.09083656  0.13794422    -0.39500
H2765       H  0.68081346  0.10323538  0.13512348     0.13300
H2766       H  0.66284894  0.10129558  0.15655892     0.12900
H2767       H  0.67681343  0.07564491  0.18725791     0.12300
H2768       H  0.69448554  0.07738149  0.16576222     0.12600
H2769       H  0.65733962  0.07987302  0.19821395     0.15300
H2770       H  0.64761590  0.09876339  0.17734124     0.14100
H2771       H  0.69756903  0.09389440  0.12264908     0.11800
H2772       H  0.71563391  0.08970886  0.15052771     0.13800
C2773       C  0.52539309  0.65551927  0.71041676     0.19900
C2774       C  0.51315929  0.65793518  0.70740793    -0.18200
C2775       C  0.51041114  0.66141981  0.69144038    -0.10500
C2776       C  0.51997418  0.66274603  0.67800090     0.22100
C2777       C  0.53248819  0.66081208  0.68107765    -0.19800
C2778       C  0.53528262  0.65738599  0.69708438    -0.10700
C2779       C  0.51653019  0.66491290  0.66052151    -0.14800
C2780       C  0.50796992  0.67118479  0.65671339    -0.28700
C2781       C  0.52692615  0.65050203  0.72740902    -0.03000
C2782       C  0.53574647  0.64443637  0.73092177    -0.39500
H2783       H  0.50535237  0.65661903  0.71736620     0.13300
H2784       H  0.50040980  0.66241727  0.68962552     0.12900
H2785       H  0.54006076  0.66179462  0.67099407     0.12300
H2786       H  0.54512155  0.65610512  0.69877409     0.12600
H2787       H  0.52087470  0.66085487  0.65049518     0.15300
H2788       H  0.50406498  0.67586158  0.66651365     0.14100
H2789       H  0.51971564  0.65090183  0.73723311     0.11800
H2790       H  0.54278167  0.64344080  0.72137067     0.13800
C2791       C  0.35579677  0.47878571  0.68608179     0.19900
C2792       C  0.35458663  0.47121961  0.67089794    -0.18200
C2793       C  0.35028502  0.47551938  0.65625633    -0.10500
C2794       C  0.34720391  0.48763639  0.65648169     0.22100
C2795       C  0.34849572  0.49521075  0.67164519    -0.19800
C2796       C  0.35280888  0.49095342  0.68620756    -0.10700
C2797       C  0.34265603  0.49296494  0.64147525    -0.14800
C2798       C  0.34279606  0.48846433  0.62563831    -0.28700
C2799       C  0.36074603  0.47409321  0.70131821    -0.03000
C2800       C  0.35881327  0.47784445  0.71695067    -0.39500
H2801       H  0.35692569  0.46188265  0.67036940     0.13300
H2802       H  0.34934414  0.46925296  0.64494032     0.12900
H2803       H  0.34631971  0.50465796  0.67222475     0.12300
H2804       H  0.35406614  0.49750207  0.69738302     0.12600
H2805       H  0.33936734  0.50155380  0.64362407     0.15300
H2806       H  0.34621349  0.48013097  0.62271516     0.14100
H2807       H  0.36611442  0.46718980  0.69958884     0.11800
H2808       H  0.35292395  0.48415550  0.71913982     0.13800
C2809       C  0.42071012  0.60615062  0.59798893     0.19900
C2810       C  0.40926909  0.60292407  0.58630927    -0.18200
C2811       C  0.39644162  0.58838781  0.58525022    -0.10500
C2812       C  0.39479867  0.57668331  0.59589548     0.22100
C2813       C  0.40627073  0.57989669  0.60753556    -0.19800
C2814       C  0.41908394  0.59442464  0.60860004    -0.10700
C2815       C  0.38179578  0.56082705  0.59475284    -0.14800
C2816       C  0.36860716  0.55687821  0.58702986    -0.28700
C2817       C  0.43455972  0.62151547  0.59794229    -0.03000
C2818       C  0.44428649  0.62721310  0.61079015    -0.39500
H2819       H  0.41034280  0.61166423  0.57781020     0.13300
H2820       H  0.38813820  0.58635554  0.57576826     0.12900
H2821       H  0.40541318  0.57105131  0.61573482     0.12300
H2822       H  0.42782646  0.59619336  0.61739286     0.12600
H2823       H  0.38307546  0.55198190  0.60084374     0.15300
H2824       H  0.36659117  0.56542337  0.58147012     0.14100
H2825       H  0.43692590  0.62833752  0.58677847     0.11800
H2826       H  0.44199806  0.62089966  0.62228770     0.13800
C2827       C  0.51447090  0.67166802  0.53083753     0.19900
C2828       C  0.52450464  0.68367033  0.52049146    -0.18200
C2829       C  0.52471416  0.68147996  0.50322947    -0.10500
C2830       C  0.51463455  0.66726539  0.49597569     0.22100
C2831       C  0.50501631  0.65516347  0.50637436    -0.19800
C2832       C  0.50497308  0.65727443  0.52359462    -0.10700
C2833       C  0.51217624  0.66520628  0.47770392    -0.14800
C2834       C  0.52280588  0.67313953  0.46612581    -0.28700
C2835       C  0.51265993  0.67487164  0.54861244    -0.03000
C2836       C  0.50733970  0.66410551  0.56051285    -0.39500
H2837       H  0.53181264  0.69491344  0.52571358     0.13300
H2838       H  0.53205512  0.69113907  0.49554031     0.12900
H2839       H  0.49702762  0.64415706  0.50106711     0.12300
H2840       H  0.49679365  0.64784379  0.53101594     0.12600
H2841       H  0.50081392  0.65684680  0.47359136     0.15300
H2842       H  0.53450765  0.68080912  0.46971576     0.14100
H2843       H  0.51505110  0.68632318  0.55179015     0.11800
H2844       H  0.50562752  0.65283553  0.55775499     0.13800
C2845       C  0.53097176  0.66045371  0.33866271     0.19900
C2846       C  0.52856792  0.66612884  0.32381105    -0.18200
C2847       C  0.53150350  0.66166315  0.30836476    -0.10500
C2848       C  0.53675160  0.65117203  0.30737481     0.22100
C2849       C  0.53961837  0.64584812  0.32223786    -0.19800
C2850       C  0.53670369  0.65034921  0.33772983    -0.10700
C2851       C  0.53933948  0.64549832  0.29118795    -0.14800
C2852       C  0.53326672  0.64633245  0.27663953    -0.28700
C2853       C  0.52641928  0.66469241  0.35459615    -0.03000
C2854       C  0.53016526  0.66233714  0.36990114    -0.39500
H2855       H  0.52425215  0.67400021  0.32413946     0.13300
H2856       H  0.52965148  0.66652628  0.29732936     0.12900
H2857       H  0.54378628  0.63785693  0.32186293     0.12300
H2858       H  0.53854467  0.64551356  0.34879726     0.12600
H2859       H  0.54606341  0.63985179  0.29137675     0.15300
H2860       H  0.52602530  0.65135104  0.27606971     0.14100
H2861       H  0.51935564  0.66993241  0.35361249     0.11800
H2862       H  0.53756715  0.65759626  0.37153983     0.13800
C2863       C  0.33656234  0.50135545  0.50320798     0.19900
C2864       C  0.34878873  0.50489505  0.49239445    -0.18200
C2865       C  0.34726572  0.50582607  0.47517692    -0.10500
C2866       C  0.33349748  0.50348120  0.46847758     0.22100
C2867       C  0.32121195  0.49969436  0.47926292    -0.19800
C2868       C  0.32265726  0.49853132  0.49641061    -0.10700
C2869       C  0.33210628  0.50678150  0.45078939    -0.14800
C2870       C  0.34028480  0.50565752  0.43814217    -0.28700
C2871       C  0.33913783  0.50257026  0.52151193    -0.03000
C2872       C  0.32796278  0.49509043  0.53270643    -0.39500
H2873       H  0.35968824  0.50737503  0.49734300     0.13300
H2874       H  0.35709429  0.50917807  0.46729377     0.12900
H2875       H  0.31056870  0.49808383  0.47444588     0.12300
H2876       H  0.31311818  0.49625428  0.50434930     0.12600
H2877       H  0.32409111  0.51063952  0.44813607     0.15300
H2878       H  0.34771351  0.50099385  0.44019716     0.14100
H2879       H  0.35052644  0.51051280  0.52590707     0.11800
H2880       H  0.31669183  0.48659487  0.52856408     0.13800
C2881       C  0.35205152  0.48928085  0.28363986     0.19900
C2882       C  0.35113121  0.50243461  0.28703386    -0.18200
C2883       C  0.34801585  0.50557187  0.30310663    -0.10500
C2884       C  0.34583277  0.49563429  0.31632538     0.22100
C2885       C  0.34613370  0.48217109  0.31285092    -0.19800
C2886       C  0.34925317  0.47901379  0.29674010    -0.10700
C2887       C  0.34317427  0.49892483  0.33378686    -0.14800
C2888       C  0.34793644  0.51315630  0.33945474    -0.28700
C2889       C  0.35635358  0.48715104  0.26641477    -0.03000
C2890       C  0.35900014  0.47589121  0.26163149    -0.39500
H2891       H  0.35299860  0.51045712  0.27721310     0.13300
H2892       H  0.34725431  0.51575991  0.30502739     0.12900
H2893       H  0.34424926  0.47419470  0.32272674     0.12300
H2894       H  0.34954874  0.46859340  0.29481892     0.12600
H2895       H  0.33769350  0.48944864  0.34238115     0.15300
H2896       H  0.35401644  0.52281489  0.33124784     0.14100
H2897       H  0.35810961  0.49577341  0.25731912     0.11800
H2898       H  0.35760287  0.46710752  0.27022729     0.13800
C2899       C  0.43860921  0.61219583  0.40756972     0.19900
C2900       C  0.42571477  0.61274934  0.40242648    -0.18200
C2901       C  0.41187324  0.59934781  0.39980542    -0.10500
C2902       C  0.41058829  0.58502145  0.40244267     0.22100
C2903       C  0.42342645  0.58445124  0.40770617    -0.19800
C2904       C  0.43724017  0.59783885  0.41040289    -0.10700
C2905       C  0.39628771  0.57043912  0.39932811    -0.14800
C2906       C  0.38242578  0.56909688  0.39932477    -0.28700
C2907       C  0.45316241  0.62681473  0.40976886    -0.03000
C2908       C  0.46683204  0.62777031  0.41064473    -0.39500
H2909       H  0.42641013  0.62361889  0.40014778     0.13300
H2910       H  0.40237394  0.60030984  0.39534692     0.12900
H2911       H  0.42274173  0.57356748  0.40985919     0.12300
H2912       H  0.44666942  0.59676164  0.41483371     0.12600
H2913       H  0.39720172  0.56027984  0.39738981     0.15300
H2914       H  0.38105383  0.57886525  0.40198362     0.14100
H2915       H  0.45265463  0.63729532  0.41004216     0.11800
H2916       H  0.46785703  0.61763045  0.40984661     0.13800
C2917       C  0.12001793  0.64814136  0.28997192     0.19900
C2918       C  0.11364513  0.64794148  0.30563137    -0.18200
C2919       C  0.12242275  0.65192986  0.32013572    -0.10500
C2920       C  0.13789682  0.65626549  0.31930766     0.22100
C2921       C  0.14434705  0.65677927  0.30362837    -0.19800
C2922       C  0.13558176  0.65278826  0.28913942    -0.10700
C2923       C  0.14753830  0.65932758  0.33435182    -0.14800
C2924       C  0.14376453  0.66117665  0.34999930    -0.28700
C2925       C  0.10978477  0.64259561  0.27516704    -0.03000
C2926       C  0.11438048  0.64298864  0.25928473    -0.39500
H2927       H  0.10168654  0.64435478  0.30671487     0.13300
H2928       H  0.11686674  0.65111617  0.33190276     0.12900
H2929       H  0.15622061  0.66000533  0.30259169     0.12300
H2930       H  0.14106848  0.65301740  0.27750595     0.12600
H2931       H  0.15840610  0.65988095  0.33238968     0.15300
H2932       H  0.13330159  0.66122405  0.35257337     0.14100
H2933       H  0.09767876  0.63755010  0.27756611     0.11800
H2934       H  0.12631183  0.64809375  0.25616635     0.13800
C2935       C  0.16636758  0.67429796  0.50768926     0.19900
C2936       C  0.17786717  0.68475909  0.49720177    -0.18200
C2937       C  0.17580769  0.68411717  0.48001492    -0.10500
C2938       C  0.16223958  0.67272466  0.47278133     0.22100
C2939       C  0.15036244  0.66276048  0.48329120    -0.19800
C2940       C  0.15239963  0.66345890  0.50061833    -0.10700
C2941       C  0.16064577  0.67060334  0.45437113    -0.14800
C2942       C  0.17272491  0.67387474  0.44466268    -0.28700
C2943       C  0.17005250  0.67455538  0.52560480    -0.03000
C2944       C  0.15984763  0.66800000  0.53795378    -0.39500
H2945       H  0.18866598  0.69334314  0.50231371     0.13300
H2946       H  0.18499390  0.69243726  0.47241944     0.12900
H2947       H  0.13973849  0.65398304  0.47804049     0.12300
H2948       H  0.14329236  0.65511847  0.50826266     0.12600
H2949       H  0.14936609  0.66522344  0.44891668     0.15300
H2950       H  0.18381901  0.67817271  0.45030410     0.14100
H2951       H  0.18204963  0.68066761  0.52880708     0.11800
H2952       H  0.14774922  0.66235022  0.53548730     0.13800
C2953       C  0.13219785  0.65412259  0.69647329     0.19900
C2954       C  0.12398076  0.65073828  0.68154937    -0.18200
C2955       C  0.13144287  0.65450430  0.66615582    -0.10500
C2956       C  0.14738559  0.66174584  0.66535123     0.22100
C2957       C  0.15561767  0.66532131  0.68028179    -0.19800
C2958       C  0.14815849  0.66158753  0.69567601    -0.10700
C2959       C  0.15579696  0.66464314  0.64933432    -0.14800
C2960       C  0.15005962  0.66483708  0.63432430    -0.28700
C2961       C  0.12365034  0.64848988  0.71237863    -0.03000
C2962       C  0.12967752  0.65355065  0.72758296    -0.39500
H2963       H  0.11167929  0.64482640  0.68178056     0.13300
H2964       H  0.12460779  0.65116900  0.65499988     0.12900
H2965       H  0.16789606  0.67073416  0.68003030     0.12300
H2966       H  0.15495171  0.66404639  0.70678938     0.12600
H2967       H  0.16734417  0.66665652  0.64996254     0.15300
H2968       H  0.13889854  0.66366750  0.63320595     0.14100
H2969       H  0.11183426  0.63953289  0.71149793     0.11800
H2970       H  0.14120425  0.66293118  0.72895997     0.13800
C2971       C  0.49776364  0.76715417  0.60219821     0.19900
C2972       C  0.48483129  0.75396834  0.60792365    -0.18200
C2973       C  0.48472722  0.74012011  0.60912746    -0.10500
C2974       C  0.49757458  0.73910744  0.60443583     0.22100
C2975       C  0.51055692  0.75231155  0.59888598    -0.19800
C2976       C  0.51065239  0.76613877  0.59763958    -0.10700
C2977       C  0.49803532  0.72465601  0.60544036    -0.14800
C2978       C  0.48558598  0.71068453  0.60533032    -0.28700
C2979       C  0.49714504  0.78151656  0.60055315    -0.03000
C2980       C  0.50956378  0.79545410  0.59947283    -0.39500
H2981       H  0.47475453  0.75439241  0.61155360     0.13300
H2982       H  0.47463875  0.73034611  0.61393465     0.12900
H2983       H  0.52062018  0.75187411  0.59521251     0.12300
H2984       H  0.52074105  0.77583552  0.59273574     0.12600
H2985       H  0.50916154  0.72556515  0.60568596     0.15300
H2986       H  0.47435361  0.70936821  0.60426808     0.14100
H2987       H  0.48601451  0.78058555  0.60044842     0.11800
H2988       H  0.52081574  0.79682118  0.60036626     0.13800
C2989       C  0.52992663  0.86878341  0.66800290     0.19900
C2990       C  0.52845297  0.86090138  0.68282142    -0.18200
C2991       C  0.53131895  0.86829455  0.69828539    -0.10500
C2992       C  0.53554754  0.88381253  0.69933425     0.22100
C2993       C  0.53752891  0.89183415  0.68448111    -0.19800
C2994       C  0.53469629  0.88443384  0.66898583    -0.10700
C2995       C  0.53782728  0.89200987  0.71554373    -0.14800
C2996       C  0.53237569  0.88497789  0.73022585    -0.28700
C2997       C  0.52528869  0.85994483  0.65207914    -0.03000
C2998       C  0.52885490  0.86607684  0.63673566    -0.39500
H2999       H  0.52488635  0.84886319  0.68245482     0.13300
H3000       H  0.53015956  0.86174085  0.70928667     0.12900
H3001       H  0.54088012  0.90381545  0.68488017     0.12300
H3002       H  0.53575956  0.89092070  0.65794697     0.12600
H3003       H  0.54361942  0.90439518  0.71524655     0.15300
H3004       H  0.52606251  0.87264544  0.73092906     0.14100
H3005       H  0.51839199  0.84761967  0.65310103     0.11800
H3006       H  0.53624592  0.87824313  0.63512458     0.13800
C3007       C  0.24256474  0.73254514  0.59937201     0.19900
C3008       C  0.25488122  0.73335921  0.60805715    -0.18200
C3009       C  0.26848540  0.74715821  0.60966998    -0.10500
C3010       C  0.27019971  0.76050232  0.60231792     0.22100
C3011       C  0.25779051  0.75974489  0.59383801    -0.19800
C3012       C  0.24412825  0.74592262  0.59229506    -0.10700
C3013       C  0.28470031  0.77532802  0.60305923    -0.14800
C3014       C  0.29825957  0.77654163  0.60623399    -0.28700
C3015       C  0.22862844  0.71741033  0.59747156    -0.03000
C3016       C  0.21479948  0.71533584  0.59386243    -0.39500
H3017       H  0.25396385  0.72323976  0.61368547     0.13300
H3018       H  0.27751072  0.74723684  0.61678048     0.12900
H3019       H  0.25877296  0.76983607  0.58807333     0.12300
H3020       H  0.23503137  0.74573860  0.58519934     0.12600
H3021       H  0.28431754  0.78556062  0.59993737     0.15300
H3022       H  0.29915204  0.76649214  0.60858870     0.14100
H3023       H  0.22977550  0.70743741  0.59960432     0.11800
H3024       H  0.21304265  0.72499119  0.59243511     0.13800
C3025       C  0.35489176  0.86912537  0.70708991     0.19900
C3026       C  0.35045749  0.87341342  0.69251983    -0.18200
C3027       C  0.34777617  0.86499887  0.67770613    -0.10500
C3028       C  0.34964610  0.85209716  0.67706896     0.22100
C3029       C  0.35394548  0.84776557  0.69171781    -0.19800
C3030       C  0.35658469  0.85614551  0.70650158    -0.10700
C3031       C  0.34753362  0.84289900  0.66157419    -0.14800
C3032       C  0.34457617  0.84624303  0.64630921    -0.28700
C3033       C  0.35864291  0.87899064  0.72226451    -0.03000
C3034       C  0.35903759  0.87420740  0.73776377    -0.39500
H3035       H  0.34913916  0.88340452  0.69256688     0.13300
H3036       H  0.34436186  0.86879033  0.66690176     0.12900
H3037       H  0.35554839  0.83794774  0.69167738     0.12300
H3038       H  0.36040809  0.85263959  0.71723035     0.12600
H3039       H  0.34879482  0.83289111  0.66277702     0.15300
H3040       H  0.34334339  0.85614672  0.64438439     0.14100
H3041       H  0.36137214  0.89073812  0.72054832     0.11800
H3042       H  0.35574223  0.86238936  0.73993725     0.13800
C3043       C  0.41052300  0.82755895  0.59580443     0.19900
C3044       C  0.42412586  0.84081918  0.59994170    -0.18200
C3045       C  0.43794699  0.84095225  0.59960616    -0.10500
C3046       C  0.43849675  0.82780727  0.59483162     0.22100
C3047       C  0.42489532  0.81457661  0.59058100    -0.19800
C3048       C  0.41106142  0.81443572  0.59095441    -0.10700
C3049       C  0.45286774  0.82726085  0.59448699    -0.14800
C3050       C  0.46676360  0.83971726  0.59385244    -0.28700
C3051       C  0.39613590  0.82802134  0.59653387    -0.03000
C3052       C  0.38229543  0.81558526  0.59808329    -0.39500
H3053       H  0.42403295  0.85108429  0.60372153     0.13300
H3054       H  0.44804151  0.85129310  0.60341476     0.12900
H3055       H  0.42498334  0.80430357  0.58682427     0.12300
H3056       H  0.40091943  0.80410189  0.58722060     0.12600
H3057       H  0.45194137  0.81608420  0.59424885     0.15300
H3058       H  0.46810130  0.85102149  0.59330618     0.14100
H3059       H  0.39705365  0.83919708  0.59653240     0.11800
H3060       H  0.38099700  0.80430196  0.59886163     0.13800
C3061       C  0.50512336  0.73293835  0.39946675     0.19900
C3062       C  0.49499519  0.73435196  0.38882845    -0.18200
C3063       C  0.49556431  0.74836394  0.38701128    -0.10500
C3064       C  0.50621736  0.76126953  0.39600272     0.22100
C3065       C  0.51654928  0.75994060  0.40636395    -0.19800
C3066       C  0.51596087  0.74593151  0.40821352    -0.10700
C3067       C  0.50675308  0.77620105  0.39520363    -0.14800
C3068       C  0.49452209  0.77754733  0.39184997    -0.28700
C3069       C  0.50358237  0.71763887  0.40162896    -0.03000
C3070       C  0.51482546  0.71548600  0.40720792    -0.39500
H3071       H  0.48657686  0.72454996  0.38189820     0.13300
H3072       H  0.48769035  0.74902438  0.37853587     0.12900
H3073       H  0.52484988  0.76970145  0.41344145     0.12300
H3074       H  0.52373023  0.74530388  0.41686356     0.12600
H3075       H  0.51725558  0.78631047  0.39887759     0.15300
H3076       H  0.48366624  0.76751635  0.38912564     0.14100
H3077       H  0.49284090  0.70774753  0.39811927     0.11800
H3078       H  0.52593415  0.72513754  0.40993682     0.13800
C3079       C  0.51725776  0.84691601  0.51011732     0.19900
C3080       C  0.50894817  0.85079640  0.49930473    -0.18200
C3081       C  0.50939124  0.84888840  0.48208045    -0.10500
C3082       C  0.51811389  0.84288455  0.47521049     0.22100
C3083       C  0.52685688  0.83949226  0.48599286    -0.19800
C3084       C  0.52652868  0.84156168  0.50326337    -0.10700
C3085       C  0.51678768  0.83821646  0.45733448    -0.14800
C3086       C  0.51171549  0.84374013  0.44530032    -0.28700
C3087       C  0.51431376  0.84666389  0.52832715    -0.03000
C3088       C  0.52396804  0.84765664  0.54034099    -0.39500
H3089       H  0.50158607  0.85478587  0.50426853     0.13300
H3090       H  0.50216435  0.85128549  0.47438047     0.12900
H3091       H  0.53353571  0.83468553  0.48108409     0.12300
H3092       H  0.53282978  0.83813224  0.51122009     0.12600
H3093       H  0.51927911  0.82922303  0.45416168     0.15300
H3094       H  0.50979992  0.85318007  0.44794291     0.14100
H3095       H  0.50337656  0.84527692  0.53201108     0.11800
H3096       H  0.53533144  0.84998298  0.53719019     0.13800
C3097       C  0.51613280  0.86840527  0.29226776     0.19900
C3098       C  0.52447632  0.87531063  0.30678898    -0.18200
C3099       C  0.52162043  0.86699900  0.32152497    -0.10500
C3100       C  0.51023496  0.85153661  0.32205463     0.22100
C3101       C  0.50195638  0.84464571  0.30751026    -0.19800
C3102       C  0.50482095  0.85292667  0.29281053    -0.10700
C3103       C  0.50569787  0.84244430  0.33764497    -0.14800
C3104       C  0.51391841  0.84635116  0.35177618    -0.28700
C3105       C  0.51887965  0.87789794  0.27717325    -0.03000
C3106       C  0.51471854  0.87207115  0.26170339    -0.39500
H3107       H  0.53311745  0.88726201  0.30679498     0.13300
H3108       H  0.52802630  0.87289883  0.33250536     0.12900
H3109       H  0.49297654  0.83282580  0.30759567     0.12300
H3110       H  0.49775791  0.84722918  0.28213909     0.12600
H3111       H  0.49475533  0.83198286  0.33751833     0.15300
H3112       H  0.52511171  0.85639822  0.35233660     0.14100
H3113       H  0.52461063  0.89019887  0.27887925     0.11800
H3114       H  0.50963252  0.85991188  0.25948558     0.13800
C3115       C  0.24291544  0.72372405  0.38089586     0.19900
C3116       C  0.25582895  0.72433040  0.38788368    -0.18200
C3117       C  0.26950955  0.73814372  0.38907173    -0.10500
C3118       C  0.27056545  0.75171539  0.38322163     0.22100
C3119       C  0.25783685  0.75095362  0.37552172    -0.19800
C3120       C  0.24415988  0.73714451  0.37434399    -0.10700
C3121       C  0.28457746  0.76687323  0.38490165    -0.14800
C3122       C  0.29591544  0.76991875  0.39558942    -0.28700
C3123       C  0.22837866  0.70897571  0.38099742    -0.03000
C3124       C  0.21464435  0.70791641  0.38050909    -0.39500
H3125       H  0.25525266  0.71410757  0.39277078     0.13300
H3126       H  0.27913867  0.73803975  0.39454605     0.12900
H3127       H  0.25839327  0.76116280  0.37061737     0.12300
H3128       H  0.23465960  0.73708254  0.36829513     0.12600
H3129       H  0.28517696  0.77619264  0.37767760     0.15300
H3130       H  0.29545748  0.76110045  0.40353224     0.14100
H3131       H  0.22898913  0.69868717  0.38303890     0.11800
H3132       H  0.21364167  0.71805538  0.37947599     0.13800
C3133       C  0.33315953  0.82630436  0.52056988     0.19900
C3134       C  0.32056783  0.81770422  0.51027397    -0.18200
C3135       C  0.32175532  0.81950574  0.49297851    -0.10500
C3136       C  0.33569657  0.82993053  0.48552172     0.22100
C3137       C  0.34822756  0.83870773  0.49588287    -0.19800
C3138       C  0.34700143  0.83696831  0.51319928    -0.10700
C3139       C  0.33806851  0.83083492  0.46710925    -0.14800
C3140       C  0.32672720  0.82493382  0.45588218    -0.28700
C3141       C  0.33183864  0.82280284  0.53865693    -0.03000
C3142       C  0.34073634  0.83281805  0.55040525    -0.39500
H3143       H  0.30982721  0.80927390  0.51561829     0.13300
H3144       H  0.31187377  0.81218033  0.48559205     0.12900
H3145       H  0.35915663  0.84665316  0.49051895     0.12300
H3146       H  0.35708050  0.84349062  0.52066351     0.12600
H3147       H  0.34970179  0.83591989  0.46263748     0.15300
H3148       H  0.31501776  0.82017428  0.45982957     0.14100
H3149       H  0.32322997  0.81141195  0.54241455     0.11800
H3150       H  0.34883569  0.84449867  0.54710485     0.13800
C3151       C  0.35153469  0.87601631  0.30818640     0.19900
C3152       C  0.33738301  0.86629983  0.31554876    -0.18200
C3153       C  0.33643221  0.86003942  0.33130266    -0.10500
C3154       C  0.34969225  0.86324612  0.34002108     0.22100
C3155       C  0.36384458  0.87305420  0.33270379    -0.19800
C3156       C  0.36479274  0.87942389  0.31702603    -0.10700
C3157       C  0.34926876  0.85537181  0.35579000    -0.14800
C3158       C  0.33715685  0.84866821  0.36606383    -0.28700
C3159       C  0.35203570  0.88139470  0.29082980    -0.03000
C3160       C  0.36383071  0.89415843  0.28458921    -0.39500
H3161       H  0.32699323  0.86331912  0.30894104     0.13300
H3162       H  0.32530068  0.85220241  0.33621737     0.12900
H3163       H  0.37424157  0.87552777  0.33898813     0.12300
H3164       H  0.37591695  0.88648655  0.31161939     0.12600
H3165       H  0.35929629  0.85461518  0.35875156     0.15300
H3166       H  0.32720390  0.84972643  0.36385659     0.14100
H3167       H  0.34225565  0.87461110  0.28292867     0.11800
H3168       H  0.37333170  0.90154347  0.29253509     0.13800
C3169       C  0.42668381  0.81592813  0.39920298     0.19900
C3170       C  0.41903837  0.81810582  0.38597790    -0.18200
C3171       C  0.40510342  0.81743464  0.38857212    -0.10500
C3172       C  0.39856708  0.81471650  0.40456519     0.22100
C3173       C  0.40622515  0.81258976  0.41782850    -0.19800
C3174       C  0.42010345  0.81308863  0.41519440    -0.10700
C3175       C  0.38437031  0.81511326  0.40793318    -0.14800
C3176       C  0.37344188  0.81120116  0.39645233    -0.28700
C3177       C  0.44194608  0.81780085  0.39604601    -0.03000
C3178       C  0.44810375  0.81131551  0.40536777    -0.39500
H3179       H  0.42396711  0.82052598  0.37360235     0.13300
H3180       H  0.39977676  0.81959675  0.37814656     0.12900
H3181       H  0.40152453  0.81069294  0.43030139     0.12300
H3182       H  0.42586028  0.81179253  0.42579216     0.12600
H3183       H  0.38278861  0.81854720  0.42031352     0.15300
H3184       H  0.37436292  0.80674694  0.38441800     0.14100
H3185       H  0.44829014  0.82466695  0.38543195     0.11800
H3186       H  0.44169888  0.80376104  0.41549038     0.13800
C3187       C  0.27022843  0.51275374  0.38428749     0.19900
C3188       C  0.25723293  0.50044878  0.39125181    -0.18200
C3189       C  0.24345708  0.50042541  0.39193241    -0.10500
C3190       C  0.24232976  0.51268932  0.38540579     0.22100
C3191       C  0.25524505  0.52482021  0.37808998    -0.19800
C3192       C  0.26901111  0.52484562  0.37742526    -0.10700
C3193       C  0.22825616  0.51373717  0.38669519    -0.14800
C3194       C  0.21440362  0.50190531  0.39017089    -0.28700
C3195       C  0.28480449  0.51259993  0.38457816    -0.03000
C3196       C  0.29850900  0.52533501  0.38394941    -0.39500
H3197       H  0.25783614  0.49097296  0.39658992     0.13300
H3198       H  0.23393400  0.49097756  0.39800218     0.12900
H3199       H  0.25470508  0.53438673  0.37290746     0.12300
H3200       H  0.27859411  0.53432724  0.37145598     0.12600
H3201       H  0.22938857  0.52486713  0.38466584     0.15300
H3202       H  0.21265387  0.49050155  0.39161734     0.14100
H3203       H  0.28424424  0.50170559  0.38643139     0.11800
H3204       H  0.29940194  0.53643281  0.38300669     0.13800
C3205       C  0.17999613  0.60321363  0.38778324     0.19900
C3206       C  0.19309344  0.60209155  0.39013707    -0.18200
C3207       C  0.19224223  0.58783646  0.39023220    -0.10500
C3208       C  0.17821445  0.57440908  0.38781482     0.22100
C3209       C  0.16523210  0.57560556  0.38504343    -0.19800
C3210       C  0.16606622  0.58979034  0.38502839    -0.10700
C3211       C  0.17646196  0.55892507  0.38767620    -0.14800
C3212       C  0.18623484  0.55529334  0.39466978    -0.28700
C3213       C  0.18130397  0.61852000  0.38775123    -0.03000
C3214       C  0.16958227  0.62075436  0.39128771    -0.39500
H3215       H  0.20401036  0.61228153  0.39200199     0.13300
H3216       H  0.20258711  0.58744234  0.39194407     0.12900
H3217       H  0.15432154  0.56546897  0.38291115     0.12300
H3218       H  0.15580408  0.59014721  0.38253674     0.12600
H3219       H  0.16604484  0.54981308  0.38227685     0.15300
H3220       H  0.19648037  0.56391814  0.40076910     0.14100
H3221       H  0.19240862  0.62832890  0.38528035     0.11800
H3222       H  0.15861268  0.61126477  0.39476783     0.13800
C3223       C  0.13879601  0.48147713  0.32462641     0.19900
C3224       C  0.14253828  0.49028927  0.31014116    -0.18200
C3225       C  0.13340394  0.48489659  0.29596061    -0.10500
C3226       C  0.12031800  0.47034798  0.29579628     0.22100
C3227       C  0.11663600  0.46142890  0.31023175    -0.19800
C3228       C  0.12578823  0.46686132  0.32448143    -0.10700
C3229       C  0.10977780  0.46465754  0.28126785    -0.14800
C3230       C  0.11389264  0.47013222  0.26570494    -0.28700
C3231       C  0.14886508  0.48804109  0.33941821    -0.03000
C3232       C  0.14468788  0.48339940  0.35522362    -0.39500
H3233       H  0.15245767  0.50160552  0.30989207     0.13300
H3234       H  0.13644963  0.49239604  0.28539702     0.12900
H3235       H  0.10659451  0.45020322  0.31050205     0.12300
H3236       H  0.12267404  0.45955310  0.33522698     0.12600
H3237       H  0.09808031  0.45587535  0.28358212     0.15300
H3238       H  0.12562456  0.47840713  0.26290784     0.14100
H3239       H  0.16010537  0.49779290  0.33723397     0.11800
H3240       H  0.13334478  0.47415039  0.35800388     0.13800
C3241       C  0.26818082  0.51261675  0.59750221     0.19900
C3242       C  0.26504685  0.52386818  0.59194068    -0.18200
C3243       C  0.25032365  0.52165028  0.59280514    -0.10500
C3244       C  0.23835218  0.50810747  0.59940696     0.22100
C3245       C  0.24148711  0.49694597  0.60520335    -0.19800
C3246       C  0.25623377  0.49920864  0.60447075    -0.10700
C3247       C  0.22240563  0.50497047  0.59960252    -0.14800
C3248       C  0.21878118  0.51606205  0.60033372    -0.28700
C3249       C  0.28391152  0.51522152  0.59544621    -0.03000
C3250       C  0.28741302  0.50405437  0.59632178    -0.39500
H3251       H  0.27397440  0.53430289  0.58652136     0.13300
H3252       H  0.24830601  0.53036552  0.58780252     0.12900
H3253       H  0.23247439  0.48642223  0.61036945     0.12300
H3254       H  0.25808761  0.49038699  0.60941682     0.12600
H3255       H  0.21336052  0.49312475  0.59926182     0.15300
H3256       H  0.22763804  0.52789841  0.60159384     0.14100
H3257       H  0.29282588  0.52663463  0.59215767     0.11800
H3258       H  0.27872937  0.49243023  0.59893393     0.13800
C3259       C  0.16199346  0.49257711  0.47850031     0.19900
C3260       C  0.16429648  0.48307869  0.48933895    -0.18200
C3261       C  0.16386786  0.48474342  0.50670374    -0.10500
C3262       C  0.16126975  0.49610963  0.51357372     0.22100
C3263       C  0.15868414  0.50535179  0.50271865    -0.19800
C3264       C  0.15902526  0.50364558  0.48547057    -0.10700
C3265       C  0.16261663  0.49987170  0.53171721    -0.14800
C3266       C  0.16176394  0.49057888  0.54411181    -0.28700
C3267       C  0.16431628  0.49185322  0.46018253    -0.03000
C3268       C  0.15876674  0.49745713  0.44873884    -0.39500
H3269       H  0.16681351  0.47459079  0.48435025     0.13300
H3270       H  0.16622443  0.47758589  0.51460573     0.12900
H3271       H  0.15682803  0.51431190  0.50761730     0.12300
H3272       H  0.15769502  0.51157613  0.47773443     0.12600
H3273       H  0.16456715  0.51115272  0.53503660     0.15300
H3274       H  0.15919703  0.47900531  0.54144230     0.14100
H3275       H  0.17143989  0.48723961  0.45607571     0.11800
H3276       H  0.15109373  0.50147854  0.45250346     0.13800
C3277       C  0.14301050  0.48482878  0.67178502     0.19900
C3278       C  0.15068575  0.48887466  0.68711502    -0.18200
C3279       C  0.14266961  0.48516115  0.70221876    -0.10500
C3280       C  0.12667137  0.47729146  0.70234880     0.22100
C3281       C  0.11901927  0.47317870  0.68701166    -0.19800
C3282       C  0.12702762  0.47685529  0.67193074    -0.10700
C3283       C  0.11744612  0.47379391  0.71794742    -0.14800
C3284       C  0.12283221  0.47489792  0.73351604    -0.28700
C3285       C  0.15205920  0.49026925  0.65608046    -0.03000
C3286       C  0.14661945  0.48488816  0.64070456    -0.39500
H3287       H  0.16299033  0.49519360  0.68741392     0.13300
H3288       H  0.14911629  0.48887826  0.71363331     0.12900
H3289       H  0.10671956  0.46726946  0.68667023     0.12300
H3290       H  0.12059550  0.47386469  0.66049616     0.12600
H3291       H  0.10547084  0.47013213  0.71648467     0.15300
H3292       H  0.13461743  0.47822584  0.73560306     0.14100
H3293       H  0.16374882  0.49946913  0.65725117     0.11800
H3294       H  0.13522161  0.47532957  0.63906146     0.13800
C3295       C  0.17341419  0.60231175  0.59085678     0.19900
C3296       C  0.16043666  0.58782014  0.58937798    -0.18200
C3297       C  0.16145151  0.57456440  0.59043959    -0.10500
C3298       C  0.17556155  0.57546437  0.59313810     0.22100
C3299       C  0.18854260  0.58994670  0.59460467    -0.19800
C3300       C  0.18753402  0.60320672  0.59354082    -0.10700
C3301       C  0.17742160  0.56175290  0.59394962    -0.14800
C3302       C  0.16587921  0.54734084  0.59565990    -0.28700
C3303       C  0.17152404  0.61598623  0.58960077    -0.03000
C3304       C  0.18298438  0.63053796  0.59009663    -0.39500
H3305       H  0.14940878  0.58672238  0.58726216     0.13300
H3306       H  0.15115845  0.56374313  0.58883019     0.12900
H3307       H  0.19957799  0.59102848  0.59661406     0.12300
H3308       H  0.19789307  0.61399425  0.59487897     0.12600
H3309       H  0.18893046  0.56365507  0.59320967     0.15300
H3310       H  0.15427574  0.54495977  0.59692472     0.14100
H3311       H  0.16001265  0.61393963  0.58824690     0.11800
H3312       H  0.19466216  0.63323235  0.59135411     0.13800
C3313       C  0.77062617  0.49956640  0.59941991     0.19900
C3314       C  0.75751861  0.48651852  0.60499205    -0.18200
C3315       C  0.74367399  0.48627128  0.60619464    -0.10500
C3316       C  0.74258877  0.49908542  0.60156580     0.22100
C3317       C  0.75567470  0.51205673  0.59575020    -0.19800
C3318       C  0.76952621  0.51230790  0.59458652    -0.10700
C3319       C  0.72820441  0.49956466  0.60267856    -0.14800
C3320       C  0.71440096  0.48723899  0.60492354    -0.28700
C3321       C  0.78512794  0.49934657  0.59886742    -0.03000
C3322       C  0.79889427  0.51199187  0.59890988    -0.39500
H3323       H  0.75804638  0.47653170  0.60873914     0.13300
H3324       H  0.73404123  0.47609846  0.61101740     0.12900
H3325       H  0.75517173  0.52205301  0.59199213     0.12300
H3326       H  0.77922157  0.52243411  0.58972921     0.12600
H3327       H  0.72897319  0.51057738  0.60098880     0.15300
H3328       H  0.71300642  0.47595903  0.60609272     0.14100
H3329       H  0.78443790  0.48828407  0.59930049     0.11800
H3330       H  0.80003031  0.52322543  0.59918477     0.13800
C3331       C  0.65188903  0.52247395  0.70691705     0.19900
C3332       C  0.66480810  0.52123122  0.70363184    -0.18200
C3333       C  0.66830909  0.51880369  0.68742381    -0.10500
C3334       C  0.65881952  0.51739081  0.67398171     0.22100
C3335       C  0.64605997  0.51895815  0.67723774    -0.19800
C3336       C  0.64257564  0.52141471  0.69346134    -0.10700
C3337       C  0.66127893  0.51362241  0.65659692    -0.14800
C3338       C  0.67204907  0.51019302  0.65217960    -0.28700
C3339       C  0.64824939  0.52409000  0.72458452    -0.03000
C3340       C  0.63798358  0.52811186  0.72927811    -0.39500
H3341       H  0.67219894  0.52200175  0.71371408     0.13300
H3342       H  0.67838056  0.51791273  0.68574228     0.12900
H3343       H  0.63850656  0.51791157  0.66721337     0.12300
H3344       H  0.63233611  0.52199329  0.69531877     0.12600
H3345       H  0.65328229  0.51278772  0.64714783     0.15300
H3346       H  0.68007895  0.51054693  0.66119460     0.14100
H3347       H  0.65433376  0.52183597  0.73420705     0.11800
H3348       H  0.63203548  0.53094245  0.72010129     0.13800
C3349       C  0.51151788  0.24176384  0.60783944     0.19900
C3350       C  0.52461519  0.25599545  0.60551495    -0.18200
C3351       C  0.52378658  0.26939580  0.60537191    -0.10500
C3352       C  0.50975395  0.26884631  0.60762786     0.22100
C3353       C  0.49675282  0.25465280  0.61051096    -0.19800
C3354       C  0.49758675  0.24127481  0.61065295    -0.10700
C3355       C  0.50811569  0.28268692  0.60747228    -0.14800
C3356       C  0.51867757  0.29632814  0.60151493    -0.28700
C3357       C  0.51285283  0.22775206  0.60742895    -0.03000
C3358       C  0.50112814  0.21383914  0.60376653    -0.39500
H3359       H  0.53553553  0.25674045  0.60362269     0.13300
H3360       H  0.53420419  0.28007458  0.60366845     0.12900
H3361       H  0.48584528  0.25388598  0.61260475     0.12300
H3362       H  0.48730944  0.23064658  0.61317025     0.12600
H3363       H  0.49747940  0.28145642  0.61208683     0.15300
H3364       H  0.52921789  0.29792508  0.59626513     0.14100
H3365       H  0.52400328  0.22903727  0.60942923     0.11800
H3366       H  0.49007348  0.21239817  0.60089563     0.13800
C3367       C  0.47463186  0.34895259  0.70422463     0.19900
C3368       C  0.46927219  0.35040709  0.68865801    -0.18200
C3369       C  0.47368386  0.34610216  0.67393403    -0.10500
C3370       C  0.48370575  0.34027302  0.67441676     0.22100
C3371       C  0.48883170  0.33856799  0.69002453    -0.19800
C3372       C  0.48442236  0.34286343  0.70472166    -0.10700
C3373       C  0.49010502  0.33696846  0.65913585    -0.14800
C3374       C  0.48571772  0.33721473  0.64336698    -0.28700
C3375       C  0.47061327  0.35486926  0.71940923    -0.03000
C3376       C  0.47217148  0.35128334  0.73512141    -0.39500
H3377       H  0.46181931  0.35516741  0.68784565     0.13300
H3378       H  0.46954203  0.34784668  0.66229152     0.12900
H3379       H  0.49665761  0.33425175  0.69084801     0.12300
H3380       H  0.48920301  0.34188331  0.71630343     0.12600
H3381       H  0.49944365  0.33477909  0.66098715     0.15300
H3382       H  0.47626035  0.33900939  0.64085553     0.14100
H3383       H  0.46633226  0.36268117  0.71754138     0.11800
H3384       H  0.47588799  0.34311348  0.73742041     0.13800
C3385       C  0.60875835  0.42361768  0.61362916     0.19900
C3386       C  0.59508491  0.42214527  0.61963806    -0.18200
C3387       C  0.58157632  0.40816361  0.61878243    -0.10500
C3388       C  0.58144778  0.39527446  0.61186721     0.22100
C3389       C  0.59522524  0.39654683  0.60658261    -0.19800
C3390       C  0.60875195  0.41055525  0.60739825    -0.10700
C3391       C  0.56721845  0.38036213  0.61005976    -0.14800
C3392       C  0.55345975  0.37910224  0.60842923    -0.28700
C3393       C  0.62261692  0.43896604  0.61411652    -0.03000
C3394       C  0.63526522  0.44289759  0.60512889    -0.39500
H3395       H  0.59479646  0.43192978  0.62481313     0.13300
H3396       H  0.57131385  0.40751389  0.62362849     0.12900
H3397       H  0.59548227  0.38671165  0.60151893     0.12300
H3398       H  0.61908501  0.41099706  0.60318953     0.12600
H3399       H  0.56819849  0.37016777  0.60907789     0.15300
H3400       H  0.55231748  0.38920053  0.60839830     0.14100
H3401       H  0.62205824  0.44770134  0.62156887     0.11800
H3402       H  0.63610432  0.43470568  0.59706007     0.13800
C3403       C  0.77893625  0.50611701  0.40206247     0.19900
C3404       C  0.77771167  0.51907676  0.39888717    -0.18200
C3405       C  0.76360082  0.51834504  0.39929959    -0.10500
C3406       C  0.75029269  0.50453423  0.40296365     0.22100
C3407       C  0.75148590  0.49150185  0.40573512    -0.19800
C3408       C  0.76557391  0.49221984  0.40525733    -0.10700
C3409       C  0.73495636  0.50303207  0.40403052    -0.14800
C3410       C  0.73229728  0.51479571  0.40369363    -0.28700
C3411       C  0.79430838  0.50766821  0.40174450    -0.03000
C3412       C  0.79732337  0.49683845  0.40689747    -0.39500
H3413       H  0.78776238  0.52989245  0.39615831     0.13300
H3414       H  0.76332823  0.52864429  0.39667707     0.12900
H3415       H  0.74143724  0.48065972  0.40837400     0.12300
H3416       H  0.76575606  0.48178881  0.40730743     0.12600
H3417       H  0.72533224  0.49160042  0.40559164     0.15300
H3418       H  0.74148468  0.52642309  0.40240513     0.14100
H3419       H  0.80366937  0.51838323  0.39727666     0.11800
H3420       H  0.78844185  0.48606429  0.41166995     0.13800
C3421       C  0.68046334  0.51502985  0.52635116     0.19900
C3422       C  0.69355938  0.52379548  0.51671369    -0.18200
C3423       C  0.69272398  0.52409880  0.49930402    -0.10500
C3424       C  0.67870490  0.51550832  0.49112620     0.22100
C3425       C  0.66558646  0.50710808  0.50078249    -0.19800
C3426       C  0.66640006  0.50686364  0.51813868    -0.10700
C3427       C  0.67743824  0.51344249  0.47270240    -0.14800
C3428       C  0.68784288  0.52291689  0.46165942    -0.28700
C3429       C  0.68211768  0.51327443  0.54454309    -0.03000
C3430       C  0.67044842  0.50757907  0.55545920    -0.39500
H3431       H  0.70457394  0.53004388  0.52264490     0.13300
H3432       H  0.70315933  0.53042764  0.49232837     0.12900
H3433       H  0.65466765  0.50023541  0.49481510     0.12300
H3434       H  0.65605507  0.49960661  0.52487843     0.12600
H3435       H  0.66755385  0.50320215  0.46802759     0.15300
H3436       H  0.69749628  0.53359159  0.46575028     0.14100
H3437       H  0.69329739  0.51599825  0.54893148     0.11800
H3438       H  0.65927503  0.50523014  0.55162305     0.13800
C3439       C  0.65451585  0.52701489  0.30633616     0.19900
C3440       C  0.65306006  0.53302847  0.32164091    -0.18200
C3441       C  0.65867706  0.53040404  0.33635918    -0.10500
C3442       C  0.66599756  0.52170552  0.33609294     0.22100
C3443       C  0.66742164  0.51566857  0.32081934    -0.19800
C3444       C  0.66181708  0.51828154  0.30612353    -0.10700
C3445       C  0.67180364  0.51807810  0.35135386    -0.14800
C3446       C  0.67373424  0.52505077  0.36626139    -0.28700
C3447       C  0.64796504  0.52990526  0.29114858    -0.03000
C3448       C  0.64895259  0.52524708  0.27564654    -0.39500
H3449       H  0.64740625  0.53970408  0.32226058     0.13300
H3450       H  0.65696673  0.53498643  0.34784849     0.12900
H3451       H  0.67289030  0.50881525  0.32023632     0.12300
H3452       H  0.66318163  0.51325126  0.29481438     0.12600
H3453       H  0.67470287  0.50911246  0.35019000     0.15300
H3454       H  0.67123590  0.53421002  0.36798877     0.14100
H3455       H  0.64195869  0.53620559  0.29284653     0.11800
H3456       H  0.65497644  0.51912800  0.27320196     0.13800
C3457       C  0.52482441  0.25471140  0.40495108     0.19900
C3458       C  0.53777967  0.26865033  0.40106706    -0.18200
C3459       C  0.53699393  0.28200176  0.39969730    -0.10500
C3460       C  0.52316698  0.28176724  0.40240384     0.22100
C3461       C  0.51020257  0.26781915  0.40628474    -0.19800
C3462       C  0.51098763  0.25445614  0.40764067    -0.10700
C3463       C  0.52167750  0.29567004  0.40136859    -0.14800
C3464       C  0.53350534  0.31003210  0.40158824    -0.28700
C3465       C  0.52641759  0.24089885  0.40619569    -0.03000
C3466       C  0.51469710  0.22648865  0.40635861    -0.39500
H3467       H  0.54858844  0.26920474  0.39891689     0.13300
H3468       H  0.54723167  0.29233893  0.39631940     0.12900
H3469       H  0.49940695  0.26727720  0.40847971     0.12300
H3470       H  0.50076227  0.24410414  0.41102405     0.12600
H3471       H  0.51024807  0.29400827  0.40125086     0.15300
H3472       H  0.54506033  0.31221474  0.40238536     0.14100
H3473       H  0.53789425  0.24269025  0.40644642     0.11800
H3474       H  0.50307847  0.22412106  0.40556674     0.13800
C3475       C  0.50306284  0.34096084  0.51882892     0.19900
C3476       C  0.50588358  0.35324695  0.50853511    -0.18200
C3477       C  0.50658338  0.35206341  0.49117028    -0.10500
C3478       C  0.50473642  0.33858264  0.48372654     0.22100
C3479       C  0.50146590  0.32615543  0.49402111    -0.19800
C3480       C  0.50053608  0.32726510  0.51134461    -0.10700
C3481       C  0.50804964  0.33768980  0.46573758    -0.14800
C3482       C  0.50771669  0.34679134  0.45378182    -0.28700
C3483       C  0.50480071  0.34333856  0.53720907    -0.03000
C3484       C  0.49744459  0.33206985  0.54832531    -0.39500
H3485       H  0.50804556  0.36398103  0.51399365     0.13300
H3486       H  0.50944094  0.36201068  0.48376681     0.12900
H3487       H  0.50016543  0.31569574  0.48867506     0.12300
H3488       H  0.49872564  0.31768862  0.51887502     0.12600
H3489       H  0.51142442  0.32938724  0.46227913     0.15300
H3490       H  0.50356569  0.35458361  0.45657497     0.14100
H3491       H  0.51289220  0.35470644  0.54169403     0.11800
H3492       H  0.48869538  0.32088025  0.54412440     0.13800
C3493       C  0.48752451  0.35901604  0.30119437     0.19900
C3494       C  0.49913773  0.35550331  0.30324283    -0.18200
C3495       C  0.50266111  0.35240664  0.31902131    -0.10500
C3496       C  0.49480098  0.35303525  0.33326556     0.22100
C3497       C  0.48310656  0.35643821  0.33120716    -0.19800
C3498       C  0.47956146  0.35951257  0.31540856    -0.10700
C3499       C  0.49856744  0.35036262  0.35039560    -0.14800
C3500       C  0.51239002  0.35270550  0.35449912    -0.28700
C3501       C  0.48452778  0.36268324  0.28419065    -0.03000
C3502       C  0.47142152  0.36193413  0.27975527    -0.39500
H3503       H  0.50547128  0.35505750  0.29254760     0.13300
H3504       H  0.51144728  0.34938791  0.31991093     0.12900
H3505       H  0.47689265  0.35704688  0.34192980     0.12300
H3506       H  0.47084018  0.36261894  0.31452324     0.12600
H3507       H  0.49004994  0.34730000  0.36010722     0.15300
H3508       H  0.52129516  0.35664253  0.34516731     0.14100
H3509       H  0.49349637  0.36612902  0.27494518     0.11800
H3510       H  0.46212128  0.35813147  0.28857067     0.13800
C3511       C  0.62220270  0.44249008  0.40618931     0.19900
C3512       C  0.60805234  0.44065042  0.40169774    -0.18200
C3513       C  0.59505267  0.42622944  0.40152859    -0.10500
C3514       C  0.59589943  0.41327415  0.40602352     0.22100
C3515       C  0.61007558  0.41503961  0.41019768    -0.19800
C3516       C  0.62309105  0.42948666  0.41042800    -0.10700
C3517       C  0.58233356  0.39775381  0.40606937    -0.14800
C3518       C  0.56812812  0.39518255  0.40843280    -0.28700
C3519       C  0.63548546  0.45820568  0.40686777    -0.03000
C3520       C  0.65006887  0.46155800  0.40756711    -0.39500
H3521       H  0.60703980  0.45044058  0.39827846     0.13300
H3522       H  0.58443983  0.42529051  0.39766702     0.12900
H3523       H  0.61103366  0.40521829  0.41360494     0.12300
H3524       H  0.63366188  0.43035039  0.41427257     0.12600
H3525       H  0.58414879  0.38810369  0.40446184     0.15300
H3526       H  0.56611381  0.40460211  0.41078577     0.14100
H3527       H  0.63309602  0.46754530  0.40654925     0.11800
H3528       H  0.65303100  0.45264948  0.40723504     0.13800
loop_ 
_geom_bond_atom_site_label_1 
_geom_bond_atom_site_label_2 
_geom_bond_distance 
_geom_bond_site_symmetry_2 
_ccdc_geom_bond_type 
O1            C4   1.266       .  A
O1           Cd6   2.476       .  S
C2           O11   1.268       .  A
C2            O7   1.266       .  A
C2         C3464   1.476       .  S
O3            C9   1.266       .  A
O3           Cd6   2.506       .  S
C4           O12   1.263       .  A
C4         C3518   1.474       .  S
C5           O10   1.269       .  A
C5            O8   1.261       .  A
C5         C3500   1.478       .  S
Cd6          O13   2.477       .  S
Cd6          O12   2.461       .  S
Cd6          O11   2.473       .  S
Cd6           O7   2.456       .  S
Cd6          O10   2.528       .  S
Cd6           O8   2.440       .  S
C9           O13   1.264       .  A
C9         C3482   1.484       .  S
O14          C17   1.266       .  A
O14         Cd19   2.466       .  S
C15          O24   1.267       .  A
C15          O20   1.267       .  A
C15        C3520   1.475       .  S
O16          C22   1.264       .  A
O16         Cd19   2.508       .  S
C17          O25   1.264       .  A
C17        C3410   1.475       .  S
C18          O23   1.266       .  A
C18          O21   1.263       .  A
C18        C3446   1.479       .  S
Cd19         O26   2.468       .  S
Cd19         O25   2.469       .  S
Cd19         O24   2.442       .  S
Cd19         O20   2.470       .  S
Cd19         O23   2.497       .  S
Cd19         O21   2.457       .  S
C22          O26   1.263       .  A
C22        C3428   1.481       .  S
O27          C30   1.264       .  A
O27         Cd32   2.470       .  S
C28          O37   1.265       .  A
C28          O33   1.267       .  A
C28        C3392   1.475       .  S
O29          C35   1.264       .  A
O29         Cd32   2.491       .  S
C30          O38   1.266       .  A
C30        C3356   1.477       .  S
C31          O36   1.266       .  A
C31          O34   1.264       .  A
C31        C3374   1.483       .  S
Cd32         O39   2.496       .  S
Cd32         O38   2.474       .  S
Cd32         O37   2.461       .  S
Cd32         O33   2.473       .  S
Cd32         O36   2.498       .  S
Cd32         O34   2.476       .  S
C35          O39   1.264       .  A
C35        C3484   1.482       .  S
O40          C43   1.267       .  A
O40         Cd45   2.451       .  S
C41          O50   1.264       .  A
C41          O46   1.264       .  A
C41        C3394   1.475       .  S
O42          C48   1.261       .  A
O42         Cd45   2.460       .  S
C43          O51   1.269       .  A
C43        C3320   1.473       .  S
C44          O49   1.262       .  A
C44          O47   1.262       .  A
C44        C3430   1.480       .  S
Cd45         O52   2.506       .  S
Cd45         O51   2.454       .  S
Cd45         O50   2.462       .  S
Cd45         O46   2.478       .  S
Cd45         O49   2.501       .  S
Cd45         O47   2.489       .  S
C48          O52   1.265       .  A
C48        C3338   1.477       .  S
O53          C56   1.264       .  A
O53         Cd58   2.466       .  S
C54          O63   1.266       .  A
C54          O59   1.267       .  A
C54        C3302   1.479       .  S
O55          C61   1.266       .  A
O55         Cd58   2.516       .  S
C56          O64   1.265       .  A
C56        C3248   1.476       .  S
C57          O62   1.266       .  A
C57          O60   1.264       .  A
C57        C3286   1.482       .  S
Cd58         O65   2.471       .  S
Cd58         O64   2.485       .  S
Cd58         O63   2.470       .  S
Cd58         O59   2.479       .  S
Cd58         O62   2.499       .  S
Cd58         O60   2.474       .  S
C61          O65   1.263       .  A
C61        C3266   1.485       .  S
O66          C69   1.265       .  A
O66         Cd71   2.493       .  S
C67          O76   1.265       .  A
C67          O72   1.266       .  A
C67        C3194   1.475       .  S
O68          C74   1.264       .  A
O68         Cd71   2.509       .  S
C69          O77   1.265       .  A
C69        C3212   1.478       .  S
C70          O75   1.266       .  A
C70          O73   1.264       .  A
C70        C3232   1.481       .  S
Cd71         O78   2.473       .  S
Cd71         O77   2.451       .  S
Cd71         O76   2.468       .  S
Cd71         O72   2.459       .  S
Cd71         O75   2.498       .  S
Cd71         O73   2.469       .  S
C74          O78   1.263       .  A
C74        C3268   1.480       .  S
O79          C82   1.264       .  A
O79         Cd84   2.472       .  S
C80          O89   1.267       .  A
C80          O85   1.265       .  A
C80        C3176   1.474       .  S
O81          C87   1.262       .  A
O81         Cd84   2.479       .  S
C82          O90   1.265       .  A
C82        C3122   1.476       .  S
C83          O88   1.262       .  A
C83          O86   1.265       .  A
C83        C3140   1.478       .  S
Cd84         O91   2.503       .  S
Cd84         O90   2.473       .  S
Cd84         O89   2.474       .  S
Cd84         O85   2.456       .  S
Cd84         O88   2.471       .  S
Cd84         O86   2.495       .  S
C87          O91   1.264       .  A
C87        C3158   1.481       .  S
O92          C95   1.263       .  A
O92         Cd97   2.464       .  S
C93         O102   1.264       .  A
C93          O98   1.266       .  A
C93        C3178   1.476       .  S
O94         C100   1.264       .  A
O94         Cd97   2.477       .  S
C95         O103   1.266       .  A
C95        C3068   1.475       .  S
C96         O101   1.266       .  A
C96          O99   1.264       .  A
C96        C3104   1.480       .  S
Cd97        O104   2.490       .  S
Cd97        O103   2.481       .  S
Cd97        O102   2.471       .  S
Cd97         O98   2.467       .  S
Cd97        O101   2.500       .  S
Cd97         O99   2.456       .  S
C100        O104   1.265       .  A
C100       C3086   1.480       .  S
O105        C108   1.265       .  A
O105       Cd110   2.452       .  S
C106        O115   1.264       .  A
C106        O111   1.263       .  A
C106       C3052   1.475       .  S
O107        C113   1.264       .  A
O107       Cd110   2.472       .  S
C108        O116   1.268       .  A
C108       C3014   1.474       .  S
C109        O114   1.265       .  A
C109        O112   1.265       .  A
C109       C3032   1.484       .  S
Cd110       O117   2.489       .  S
Cd110       O116   2.472       .  S
Cd110       O115   2.464       .  S
Cd110       O111   2.479       .  S
Cd110       O114   2.495       .  S
Cd110       O112   2.490       .  S
C113        O117   1.265       .  A
C113       C3142   1.478       .  S
O118        C121   1.269       .  A
O118       Cd123   2.473       .  S
C119        O128   1.264       .  A
C119        O124   1.267       .  A
C119       C2980   1.478       .  S
O120        C126   1.263       .  A
O120       Cd123   2.461       .  S
C121        O129   1.265       .  A
C121       C3050   1.475       .  S
C122        O127   1.267       .  A
C122        O125   1.264       .  A
C122       C2998   1.481       .  S
Cd123       O130   2.515       .  S
Cd123       O129   2.451       .  S
Cd123       O128   2.458       .  S
Cd123       O124   2.497       .  S
Cd123       O127   2.499       .  S
Cd123       O125   2.458       .  S
C126        O130   1.266       .  A
C126       C3088   1.483       .  S
O131        C134   1.263       .  A
O131       Cd136   2.464       .  S
C132        O141   1.266       .  A
C132        O137   1.265       .  A
C132       C3016   1.477       .  S
O133        C139   1.265       .  A
O133       Cd136   2.500       .  S
C134        O142   1.266       .  A
C134       C3304   1.476       .  S
C135        O140   1.263       .  A
C135        O138   1.265       .  A
C135       C2960   1.476       .  S
Cd136       O143   2.444       .  S
Cd136       O142   2.477       .  S
Cd136       O141   2.485       .  S
Cd136       O137   2.451       .  S
Cd136       O140   2.451       .  S
Cd136       O138   2.489       .  S
C139        O143   1.264       .  A
C139       C2944   1.479       .  S
O144        C147   1.267       .  A
O144       Cd149   2.454       .  S
C145        O154   1.264       .  A
C145        O150   1.266       .  A
C145       C3214   1.473       .  S
O146        C152   1.269       .  A
O146       Cd149   2.524       .  S
C147        O155   1.266       .  A
C147       C3124   1.474       .  S
C148        O153   1.269       .  A
C148        O151   1.264       .  A
C148       C2924   1.480       .  S
Cd149       O156   2.420       .  S
Cd149       O155   2.457       .  S
Cd149       O154   2.458       .  S
Cd149       O150   2.470       .  S
Cd149       O153   2.499       .  S
Cd149       O151   2.435       .  S
C152        O156   1.261       .  A
C152       C2942   1.473       .  S
O157        C160   1.265       .  A
O157       Cd162   2.455       .  S
C158        O167   1.266       .  A
C158        O163   1.265       .  A
C158       C2906   1.475       .  S
O159        C165   1.267       .  A
O159       Cd162   2.509       .  S
C160        O168   1.267       .  A
C160       C3196   1.476       .  S
C161        O166   1.269       .  A
C161        O164   1.262       .  A
C161       C2888   1.477       .  S
Cd162       O169   2.448       .  S
Cd162       O168   2.482       .  S
Cd162       O167   2.461       .  S
Cd162       O163   2.468       .  S
Cd162       O166   2.514       .  S
Cd162       O164   2.440       .  S
C165        O169   1.263       .  A
C165       C2870   1.480       .  S
O170        C173   1.269       .  A
O170       Cd175   2.481       .  S
C171        O180   1.264       .  A
C171        O176   1.267       .  A
C171       C3070   1.476       .  S
O172        C178   1.267       .  A
O172       Cd175   2.501       .  S
C173        O181   1.264       .  A
C173       C2908   1.474       .  S
C174        O179   1.267       .  A
C174        O177   1.264       .  A
C174       C2854   1.478       .  S
Cd175       O182   2.446       .  S
Cd175       O181   2.445       .  S
Cd175       O180   2.461       .  S
Cd175       O176   2.478       .  S
Cd175       O179   2.490       .  S
Cd175       O177   2.443       .  S
C178        O182   1.265       .  A
C178       C2834   1.479       .  S
O183        C186   1.267       .  A
O183       Cd188   2.493       .  S
C184        O193   1.266       .  A
C184        O189   1.266       .  A
C184       C2816   1.475       .  S
O185        C191   1.264       .  A
O185       Cd188   2.446       .  S
C186        O194   1.263       .  A
C186       C3250   1.475       .  S
C187        O192   1.264       .  A
C187        O190   1.262       .  A
C187       C2872   1.478       .  S
Cd188       O195   2.501       .  S
Cd188       O194   2.448       .  S
Cd188       O193   2.453       .  S
Cd188       O189   2.471       .  S
Cd188       O192   2.489       .  S
Cd188       O190   2.482       .  S
C191        O195   1.267       .  A
C191       C2798   1.481       .  S
O196        C199   1.266       .  A
O196       Cd201   2.493       .  S
C197        O206   1.267       .  A
C197        O202   1.267       .  A
C197       C2978   1.477       .  S
O198        C204   1.269       .  A
O198       Cd201   2.515       .  S
C199        O207   1.261       .  A
C199       C2818   1.474       .  S
C200        O205   1.263       .  A
C200        O203   1.264       .  A
C200       C2836   1.481       .  S
Cd201       O208   2.447       .  S
Cd201       O207   2.461       .  S
Cd201       O206   2.461       .  S
Cd201       O202   2.469       .  S
Cd201       O205   2.494       .  S
Cd201       O203   2.492       .  S
C204        O208   1.262       .  A
C204       C2780   1.479       .  S
O209        C212   1.265       .  A
O209       Cd214   2.468       .  S
C210        O219   1.267       .  A
C210        O215   1.265       .  A
C210       C2744   1.474       .  S
O211        C217   1.269       .  A
O211       Cd214   2.524       .  S
C212        O220   1.264       .  A
C212       C2708   1.475       .  S
C213        O218   1.267       .  A
C213        O216   1.264       .  A
C213       C2762   1.484       .  S
Cd214       O221   2.446       .  S
Cd214       O220   2.470       .  S
Cd214       O219   2.454       .  S
Cd214       O215   2.466       .  S
Cd214       O218   2.506       .  S
Cd214       O216   2.468       .  S
C217        O221   1.262       .  A
C217       C2726   1.479       .  S
O222        C225   1.265       .  A
O222       Cd227   2.464       .  S
C223        O232   1.263       .  A
C223        O228   1.267       .  A
C223       C2746   1.472       .  S
O224        C230   1.266       .  A
O224       Cd227   2.493       .  S
C225        O233   1.266       .  A
C225       C3106   1.476       .  S
C226        O231   1.266       .  A
C226        O229   1.265       .  A
C226       C2674   1.480       .  S
Cd227       O234   2.475       .  S
Cd227       O233   2.479       .  S
Cd227       O232   2.442       .  S
Cd227       O228   2.482       .  S
Cd227       O231   2.485       .  S
Cd227       O229   2.475       .  S
C230        O234   1.265       .  A
C230       C2690   1.482       .  S
O235        C238   1.265       .  A
O235       Cd240   2.485       .  S
C236        O245   1.266       .  A
C236        O241   1.268       .  A
C236       C2764   1.480       .  S
O237        C243   1.268       .  A
O237       Cd240   2.519       .  S
C238        O246   1.265       .  A
C238       C2636   1.480       .  S
C239        O244   1.269       .  A
C239        O242   1.263       .  A
C239       C2618   1.482       .  S
Cd240       O247   2.454       .  S
Cd240       O246   2.471       .  S
Cd240       O245   2.462       .  S
Cd240       O241   2.496       .  S
Cd240       O244   2.525       .  S
Cd240       O242   2.453       .  S
C243        O247   1.264       .  A
C243       C2656   1.485       .  S
O248        C251   1.268       .  A
O248       Cd253   2.482       .  S
C249        O258   1.266       .  A
C249        O254   1.266       .  A
C249       C2602   1.476       .  S
O250        C256   1.273       .  A
O250       Cd253   2.550       .  S
C251        O259   1.267       .  A
C251       C2692   1.480       .  S
C252        O257   1.272       .  A
C252        O255   1.262       .  A
C252       C2582   1.483       .  S
Cd253       O260   2.405       .  S
Cd253       O259   2.465       .  S
Cd253       O258   2.461       .  S
Cd253       O254   2.468       .  S
Cd253       O257   2.554       .  S
Cd253       O255   2.421       .  S
C256        O260   1.261       .  A
C256       C2654   1.478       .  S
O261        C264   1.266       .  A
O261       Cd266   2.479       .  S
C262        O271   1.265       .  A
C262        O267   1.268       .  A
C262       C2638   1.478       .  S
O263        C269   1.268       .  A
O263       Cd266   2.522       .  S
C264        O272   1.266       .  A
C264       C2546   1.479       .  S
C265        O270   1.269       .  A
C265        O268   1.262       .  A
C265       C2528   1.479       .  S
Cd266       O273   2.443       .  S
Cd266       O272   2.466       .  S
Cd266       O271   2.460       .  S
Cd266       O267   2.484       .  S
Cd266       O270   2.522       .  S
Cd266       O268   2.442       .  S
C269        O273   1.263       .  A
C269       C2564   1.482       .  S
O274        C277   1.265       .  A
O274       Cd279   2.462       .  S
C275        O284   1.262       .  A
C275        O280   1.266       .  A
C275       C2600   1.475       .  S
O276        C282   1.266       .  A
O276       Cd279   2.514       .  S
C277        O285   1.268       .  A
C277       C2512   1.477       .  S
C278        O283   1.265       .  A
C278        O281   1.264       .  A
C278       C2566   1.480       .  S
Cd279       O286   2.460       .  S
Cd279       O285   2.477       .  S
Cd279       O284   2.456       .  S
Cd279       O280   2.495       .  S
Cd279       O283   2.501       .  S
Cd279       O281   2.481       .  S
C282        O286   1.263       .  A
C282       C2492   1.485       .  S
O287        C290   1.263       .  A
O287       Cd292   2.477       .  S
C288        O297   1.267       .  A
C288        O293   1.267       .  A
C288       C2438   1.480       .  S
O289        C295   1.263       .  A
O289       Cd292   2.473       .  S
C290        O298   1.263       .  A
C290       C2474   1.475       .  S
C291        O296   1.267       .  A
C291        O294   1.263       .  A
C291       C2548   1.474       .  S
Cd292       O299   2.496       .  S
Cd292       O298   2.465       .  S
Cd292       O297   2.477       .  S
Cd292       O293   2.468       .  S
Cd292       O296   2.498       .  S
Cd292       O294   2.449       .  S
C295        O299   1.264       .  A
C295       C2456   1.479       .  S
O300        C303   1.267       .  A
O300       Cd305   2.479       .  S
C301        O310   1.266       .  A
C301        O306   1.267       .  A
C301       C2996   1.478       .  S
O302        C308   1.268       .  A
O302       Cd305   2.506       .  S
C303        O311   1.263       .  A
C303       C2476   1.472       .  S
C304        O309   1.268       .  A
C304        O307   1.264       .  A
C304       C2422   1.481       .  S
Cd305       O312   2.441       .  S
Cd305       O311   2.444       .  S
Cd305       O310   2.464       .  S
Cd305       O306   2.474       .  S
Cd305       O309   2.506       .  S
Cd305       O307   2.433       .  S
C308        O312   1.262       .  A
C308       C2510   1.476       .  S
O313        C316   1.265       .  A
O313       Cd318   2.455       .  S
C314        O323   1.265       .  A
C314        O319   1.263       .  A
C314       C2366   1.476       .  S
O315        C321   1.264       .  A
O315       Cd318   2.478       .  S
C316        O324   1.269       .  A
C316       C2384   1.478       .  S
C317        O322   1.268       .  A
C317        O320   1.261       .  A
C317       C2350   1.484       .  S
Cd318       O325   2.514       .  S
Cd318       O324   2.489       .  S
Cd318       O323   2.474       .  S
Cd318       O319   2.474       .  S
Cd318       O322   2.541       .  S
Cd318       O320   2.458       .  S
C321        O325   1.267       .  A
C321       C2404   1.486       .  S
O326        C329   1.264       .  A
O326       Cd331   2.480       .  S
C327        O336   1.268       .  A
C327        O332   1.265       .  A
C327       C2332   1.481       .  S
O328        C334   1.264       .  A
O328       Cd331   2.492       .  S
C329        O337   1.266       .  A
C329       C2314   1.480       .  S
C330        O335   1.265       .  A
C330        O333   1.263       .  A
C330       C2296   1.487       .  S
Cd331       O338   2.514       .  S
Cd331       O337   2.481       .  S
Cd331       O336   2.496       .  S
Cd331       O332   2.469       .  S
Cd331       O335   2.520       .  S
Cd331       O333   2.493       .  S
C334        O338   1.265       .  A
C334       C2402   1.486       .  S
O339        C342   1.264       .  A
O339       Cd344   2.475       .  S
C340        O349   1.263       .  A
C340        O345   1.267       .  A
C340       C2276   1.475       .  S
O341        C347   1.265       .  A
O341       Cd344   2.494       .  S
C342        O350   1.267       .  A
C342       C3160   1.482       .  S
C343        O348   1.265       .  A
C343        O346   1.263       .  A
C343       C2330   1.481       .  S
Cd344       O351   2.459       .  S
Cd344       O350   2.500       .  S
Cd344       O349   2.458       .  S
Cd344       O345   2.481       .  S
Cd344       O348   2.503       .  S
Cd344       O346   2.481       .  S
C347        O351   1.263       .  A
C347       C2672   1.478       .  S
O352        C355   1.262       .  A
O352       Cd357   2.456       .  S
C353        O362   1.266       .  A
C353        O358   1.265       .  A
C353       C2278   1.474       .  S
O354        C360   1.264       .  A
O354       Cd357   2.475       .  S
C355        O363   1.266       .  A
C355       C2260   1.473       .  S
C356        O361   1.267       .  A
C356        O359   1.264       .  A
C356       C2728   1.484       .  S
Cd357       O364   2.490       .  S
Cd357       O363   2.481       .  S
Cd357       O362   2.447       .  S
Cd357       O358   2.469       .  S
Cd357       O361   2.508       .  S
Cd357       O359   2.458       .  S
C360        O364   1.264       .  A
C360       C2386   1.479       .  S
O365        C368   1.271       .  A
O365       Cd370   2.507       .  S
C366        O375   1.263       .  A
C366        O371   1.271       .  A
C366       C2312   1.476       .  S
O367        C373   1.271       .  A
O367       Cd370   2.525       .  S
C368        O376   1.265       .  A
C368       C2224   1.482       .  S
C369        O374   1.270       .  A
C369        O372   1.266       .  A
C369       C2204   1.486       .  S
Cd370       O377   2.435       .  S
Cd370       O376   2.451       .  S
Cd370       O375   2.429       .  S
Cd370       O371   2.509       .  S
Cd370       O374   2.508       .  S
Cd370       O372   2.447       .  S
C373        O377   1.264       .  A
C373       C2240   1.481       .  S
O378        C381   1.268       .  A
O378       Cd383   2.480       .  S
C379        O388   1.266       .  A
C379        O384   1.265       .  A
C379       C2188   1.483       .  S
O380        C386   1.267       .  A
O380       Cd383   2.515       .  S
C381        O389   1.264       .  A
C381       C2368   1.474       .  S
C382        O387   1.263       .  A
C382        O385   1.266       .  A
C382       C2170   1.488       .  S
Cd383       O390   2.472       .  S
Cd383       O389   2.451       .  S
Cd383       O388   2.480       .  S
Cd383       O384   2.488       .  S
Cd383       O387   2.496       .  S
Cd383       O385   2.520       .  S
C386        O390   1.264       .  A
C386       C2242   1.486       .  S
O391        C394   1.266       .  A
O391       Cd396   2.471       .  S
C392        O401   1.264       .  A
C392        O397   1.266       .  A
C392       C3034   1.479       .  S
O393        C399   1.261       .  A
O393       Cd396   2.438       .  S
C394        O402   1.267       .  A
C394       C2150   1.478       .  S
C395        O400   1.266       .  A
C395        O398   1.265       .  A
C395       C2222   1.483       .  S
Cd396       O403   2.521       .  S
Cd396       O402   2.467       .  S
Cd396       O401   2.472       .  S
Cd396       O397   2.489       .  S
Cd396       O400   2.497       .  S
Cd396       O398   2.479       .  S
C399        O403   1.268       .  A
C399       C2420   1.475       .  S
O404        C407   1.266       .  A
O404       Cd409   2.483       .  S
C405        O414   1.268       .  A
C405        O410   1.265       .  A
C405       C2132   1.486       .  S
O406        C412   1.265       .  A
O406       Cd409   2.518       .  S
C407        O415   1.263       .  A
C407       C2152   1.476       .  S
C408        O413   1.265       .  A
C408        O411   1.262       .  A
C408       C2458   1.480       .  S
Cd409       O416   2.467       .  S
Cd409       O415   2.463       .  S
Cd409       O414   2.504       .  S
Cd409       O410   2.486       .  S
Cd409       O413   2.515       .  S
Cd409       O411   2.459       .  S
C412        O416   1.263       .  A
C412       C2186   1.481       .  S
O417        C420   1.269       .  A
O417       Cd422   2.496       .  S
C418        O427   1.263       .  A
C418        O423   1.267       .  A
C418       C2078   1.475       .  S
O419        C425   1.270       .  A
O419       Cd422   2.515       .  S
C420        O428   1.265       .  A
C420       C2096   1.476       .  S
C421        O426   1.270       .  A
C421        O424   1.263       .  A
C421       C2060   1.485       .  S
Cd422       O429   2.456       .  S
Cd422       O428   2.443       .  S
Cd422       O427   2.448       .  S
Cd422       O423   2.497       .  S
Cd422       O426   2.539       .  S
Cd422       O424   2.452       .  S
C425        O429   1.265       .  A
C425       C2114   1.487       .  S
O430        C433   1.271       .  A
O430       Cd435   2.542       .  S
C431        O440   1.265       .  A
C431        O436   1.272       .  A
C431       C2044   1.483       .  S
O432        C438   1.272       .  A
O432       Cd435   2.538       .  S
C433        O441   1.263       .  A
C433       C2024   1.482       .  S
C434        O439   1.270       .  A
C434        O437   1.267       .  A
C434       C2348   1.489       .  S
Cd435       O442   2.423       .  S
Cd435       O441   2.434       .  S
Cd435       O440   2.445       .  S
Cd435       O436   2.513       .  S
Cd435       O439   2.511       .  S
Cd435       O437   2.468       .  S
C438        O442   1.263       .  A
C438       C2116   1.480       .  S
O443        C446   1.266       .  A
O443       Cd448   2.466       .  S
C444        O453   1.265       .  A
C444        O449   1.262       .  A
C444       C2890   1.478       .  S
O445        C451   1.266       .  A
O445       Cd448   2.509       .  S
C446        O454   1.265       .  A
C446       C2006   1.474       .  S
C447        O452   1.263       .  A
C447        O450   1.265       .  A
C447       C2098   1.482       .  S
Cd448       O455   2.454       .  S
Cd448       O454   2.459       .  S
Cd448       O453   2.486       .  S
Cd448       O449   2.474       .  S
Cd448       O452   2.460       .  S
Cd448       O450   2.507       .  S
C451        O455   1.265       .  A
C451       C1988   1.483       .  S
O456        C459   1.262       .  A
O456       Cd461   2.458       .  S
C457        O466   1.266       .  A
C457        O462   1.264       .  A
C457       C2008   1.473       .  S
O458        C464   1.270       .  A
O458       Cd461   2.533       .  S
C459        O467   1.267       .  A
C459       C3502   1.477       .  S
C460        O465   1.266       .  A
C460        O463   1.263       .  A
C460       C2042   1.486       .  S
Cd461       O468   2.438       .  S
Cd461       O467   2.494       .  S
Cd461       O466   2.462       .  S
Cd461       O462   2.459       .  S
Cd461       O465   2.512       .  S
Cd461       O463   2.483       .  S
C464        O468   1.262       .  A
C464       C1970   1.480       .  S
O469        C472   1.264       .  A
O469       Cd474   2.472       .  S
C470        O479   1.267       .  A
C470        O475   1.266       .  A
C470       C1934   1.477       .  S
O471        C477   1.265       .  A
O471       Cd474   2.501       .  S
C472        O480   1.266       .  A
C472       C2800   1.479       .  S
C473        O478   1.266       .  A
C473        O476   1.262       .  A
C473       C1954   1.480       .  S
Cd474       O481   2.476       .  S
Cd474       O480   2.496       .  S
Cd474       O479   2.462       .  S
Cd474       O475   2.468       .  S
Cd474       O478   2.514       .  S
Cd474       O476   2.465       .  S
C477        O481   1.264       .  A
C477       C1916   1.481       .  S
O482        C485   1.266       .  A
O482       Cd487   2.495       .  S
C483        O492   1.262       .  A
C483        O488   1.268       .  A
C483       C1936   1.475       .  S
O484        C490   1.265       .  A
O484       Cd487   2.484       .  S
C485        O493   1.264       .  A
C485       C3376   1.481       .  S
C486        O491   1.265       .  A
C486        O489   1.265       .  A
C486       C1882   1.478       .  S
Cd487       O494   2.484       .  S
Cd487       O493   2.475       .  S
Cd487       O492   2.442       .  S
Cd487       O488   2.503       .  S
Cd487       O491   2.482       .  S
Cd487       O489   2.469       .  S
C490        O494   1.266       .  A
C490       C1900   1.481       .  S
O495        C498   1.266       .  A
O495       Cd500   2.470       .  S
C496        O505   1.265       .  A
C496        O501   1.265       .  A
C496       C2080   1.479       .  S
O497        C503   1.266       .  A
O497       Cd500   2.518       .  S
C498        O506   1.268       .  A
C498       C1952   1.480       .  S
C499        O504   1.267       .  A
C499        O502   1.264       .  A
C499       C1864   1.487       .  S
Cd500       O507   2.471       .  S
Cd500       O506   2.483       .  S
Cd500       O505   2.471       .  S
Cd500       O501   2.485       .  S
Cd500       O504   2.523       .  S
Cd500       O502   2.459       .  S
C503        O507   1.262       .  A
C503       C1844   1.481       .  S
O508        C511   1.268       .  A
O508       Cd513   2.494       .  S
C509        O518   1.265       .  A
C509        O514   1.268       .  A
C509       C1898   1.478       .  S
O510        C516   1.268       .  A
O510       Cd513   2.519       .  S
C511        O519   1.267       .  A
C511       C2026   1.484       .  S
C512        O517   1.270       .  A
C512        O515   1.262       .  A
C512       C1862   1.480       .  S
Cd513       O520   2.476       .  S
Cd513       O519   2.457       .  S
Cd513       O518   2.465       .  S
Cd513       O514   2.484       .  S
Cd513       O517   2.543       .  S
Cd513       O515   2.429       .  S
C516        O520   1.264       .  A
C516       C2168   1.487       .  S
O521        C524   1.267       .  A
O521       Cd526   2.478       .  S
C522        O531   1.264       .  A
C522        O527   1.267       .  A
C522       C1808   1.474       .  S
O523        C529   1.267       .  A
O523       Cd526   2.502       .  S
C524        O532   1.265       .  A
C524       C1774   1.475       .  S
C525        O530   1.269       .  A
C525        O528   1.263       .  A
C525       C1790   1.476       .  S
Cd526       O533   2.459       .  S
Cd526       O532   2.455       .  S
Cd526       O531   2.455       .  S
Cd526       O527   2.474       .  S
Cd526       O530   2.508       .  S
Cd526       O528   2.437       .  S
C529        O533   1.265       .  A
C529       C1826   1.483       .  S
O534        C537   1.266       .  A
O534       Cd539   2.484       .  S
C535        O544   1.265       .  A
C535        O540   1.264       .  A
C535       C1810   1.474       .  S
O536        C542   1.268       .  A
O536       Cd539   2.522       .  S
C537        O545   1.266       .  A
C537       C3230   1.479       .  S
C538        O543   1.267       .  A
C538        O541   1.264       .  A
C538       C1756   1.484       .  S
Cd539       O546   2.447       .  S
Cd539       O545   2.471       .  S
Cd539       O544   2.459       .  S
Cd539       O540   2.470       .  S
Cd539       O543   2.512       .  S
Cd539       O541   2.451       .  S
C542        O546   1.262       .  A
C542       C1736   1.479       .  S
O547        C550   1.269       .  A
O547       Cd552   2.514       .  S
C548        O557   1.264       .  A
C548        O553   1.268       .  A
C548       C1754   1.478       .  S
O549        C555   1.268       .  A
O549       Cd552   2.515       .  S
C550        O558   1.263       .  A
C550       C1700   1.474       .  S
C551        O556   1.268       .  A
C551        O554   1.266       .  A
C551       C2062   1.488       .  S
Cd552       O559   2.485       .  S
Cd552       O558   2.425       .  S
Cd552       O557   2.450       .  S
Cd552       O553   2.503       .  S
Cd552       O556   2.507       .  S
Cd552       O554   2.493       .  S
C555        O559   1.265       .  A
C555       C1720   1.490       .  S
O560        C563   1.266       .  A
O560       Cd565   2.491       .  S
C561        O570   1.266       .  A
C561        O566   1.266       .  A
C561       C1682   1.478       .  S
O562        C568   1.270       .  A
O562       Cd565   2.551       .  S
C563        O571   1.265       .  A
C563       C1828   1.482       .  S
C564        O569   1.269       .  A
C564        O567   1.264       .  A
C564       C2620   1.487       .  S
Cd565       O572   2.438       .  S
Cd565       O571   2.480       .  S
Cd565       O570   2.466       .  S
Cd565       O566   2.475       .  S
Cd565       O569   2.516       .  S
Cd565       O567   2.468       .  S
C568        O572   1.262       .  A
C568       C1718   1.483       .  S
O573        C576   1.265       .  A
O573       Cd578   2.465       .  S
C574        O583   1.264       .  A
C574        O579   1.267       .  A
C574       C1646   1.474       .  S
O575        C581   1.267       .  A
O575       Cd578   2.503       .  S
C576        O584   1.267       .  A
C576       C1610   1.478       .  S
C577        O582   1.266       .  A
C577        O580   1.263       .  A
C577       C1666   1.477       .  S
Cd578       O585   2.451       .  S
Cd578       O584   2.478       .  S
Cd578       O583   2.458       .  S
Cd578       O579   2.472       .  S
Cd578       O582   2.497       .  S
Cd578       O580   2.464       .  S
C581        O585   1.264       .  A
C581       C1628   1.481       .  S
O586        C589   1.265       .  A
O586       Cd591   2.467       .  S
C587        O596   1.265       .  A
C587        O592   1.265       .  A
C587       C3284   1.482       .  S
O588        C594   1.264       .  A
O588       Cd591   2.489       .  S
C589        O597   1.265       .  A
C589       C1648   1.475       .  S
C590        O595   1.265       .  A
C590        O593   1.265       .  A
C590       C1592   1.481       .  S
Cd591       O598   2.464       .  S
Cd591       O597   2.467       .  S
Cd591       O596   2.495       .  S
Cd591       O592   2.476       .  S
Cd591       O595   2.495       .  S
Cd591       O593   2.476       .  S
C594        O598   1.264       .  A
C594       C1574   1.478       .  S
O599        C602   1.267       .  A
O599       Cd604   2.480       .  S
C600        O609   1.265       .  A
C600        O605   1.265       .  A
C600       C1702   1.479       .  S
O601        C607   1.267       .  A
O601       Cd604   2.511       .  S
C602        O610   1.265       .  A
C602       C1594   1.478       .  S
C603        O608   1.267       .  A
C603        O606   1.265       .  A
C603       C1846   1.485       .  S
Cd604       O611   2.467       .  S
Cd604       O610   2.468       .  S
Cd604       O609   2.456       .  S
Cd604       O605   2.490       .  S
Cd604       O608   2.502       .  S
Cd604       O606   2.478       .  S
C607        O611   1.265       .  A
C607       C1556   1.486       .  S
O612        C615   1.267       .  A
O612       Cd617   2.485       .  S
C613        O622   1.268       .  A
C613        O618   1.266       .  A
C613       C1664   1.481       .  S
O614        C620   1.270       .  A
O614       Cd617   2.535       .  S
C615        O623   1.263       .  A
C615       C1684   1.474       .  S
C616        O621   1.268       .  A
C616        O619   1.265       .  A
C616       C2530   1.485       .  S
Cd617       O624   2.435       .  S
Cd617       O623   2.443       .  S
Cd617       O622   2.482       .  S
Cd617       O618   2.475       .  S
Cd617       O621   2.507       .  S
Cd617       O619   2.464       .  S
C620        O624   1.262       .  A
C620       C1558   1.480       .  S
O625        C628   1.266       .  A
O625       Cd630   2.481       .  S
C626        O635   1.266       .  A
C626        O631   1.266       .  A
C626       C1502   1.478       .  S
O627        C633   1.268       .  A
O627       Cd630   2.549       .  S
C628        O636   1.267       .  A
C628       C1520   1.481       .  S
C629        O634   1.263       .  A
C629        O632   1.263       .  A
C629       C1484   1.483       .  S
Cd630       O637   2.437       .  S
Cd630       O636   2.464       .  S
Cd630       O635   2.446       .  S
Cd630       O631   2.485       .  S
Cd630       O634   2.513       .  S
Cd630       O632   2.490       .  S
C633        O637   1.260       .  A
C633       C1538   1.480       .  S
O638        C641   1.262       .  A
O638       Cd643   2.466       .  S
C639        O648   1.265       .  A
C639        O644   1.263       .  A
C639       C1448   1.482       .  S
O640        C646   1.265       .  A
O640       Cd643   2.524       .  S
C641        O649   1.267       .  A
C641       C1466   1.484       .  S
C642        O647   1.266       .  A
C642        O645   1.265       .  A
C642       C1540   1.486       .  S
Cd643       O650   2.489       .  S
Cd643       O649   2.532       .  S
Cd643       O648   2.495       .  S
Cd643       O644   2.487       .  S
Cd643       O647   2.507       .  S
Cd643       O645   2.483       .  S
C646        O650   1.264       .  A
C646       C2584   1.490       .  S
O651        C654   1.265       .  A
O651       Cd656   2.471       .  S
C652        O661   1.267       .  A
C652        O657   1.265       .  A
C652       C1430   1.477       .  S
O653        C659   1.267       .  A
O653       Cd656   2.513       .  S
C654        O662   1.264       .  A
C654       C3448   1.475       .  S
C655        O660   1.264       .  A
C655        O658   1.263       .  A
C655       C1972   1.483       .  S
Cd656       O663   2.453       .  S
Cd656       O662   2.465       .  S
Cd656       O661   2.463       .  S
Cd656       O657   2.467       .  S
Cd656       O660   2.504       .  S
Cd656       O658   2.481       .  S
C659        O663   1.262       .  A
C659       C1522   1.477       .  S
O664        C667   1.266       .  A
O664       Cd669   2.464       .  S
C665        O674   1.263       .  A
C665        O670   1.266       .  A
C665       C1432   1.470       .  S
O666        C672   1.270       .  A
O666       Cd669   2.528       .  S
C667        O675   1.267       .  A
C667       C2852   1.476       .  S
C668        O673   1.269       .  A
C668        O671   1.262       .  A
C668       C1468   1.481       .  S
Cd669       O676   2.428       .  S
Cd669       O675   2.467       .  S
Cd669       O674   2.440       .  S
Cd669       O670   2.476       .  S
Cd669       O673   2.524       .  S
Cd669       O671   2.450       .  S
C672        O676   1.262       .  A
C672       C1990   1.477       .  S
O677        C680   1.269       .  A
O677       Cd682   2.485       .  S
C678        O687   1.267       .  A
C678        O683   1.270       .  A
C678       C1394   1.480       .  S
O679        C685   1.274       .  A
O679       Cd682   2.557       .  S
C680        O688   1.265       .  A
C680       C1504   1.473       .  S
C681        O686   1.274       .  A
C681        O684   1.263       .  A
C681       C1376   1.483       .  S
Cd682       O689   2.417       .  S
Cd682       O688   2.432       .  S
Cd682       O687   2.452       .  S
Cd682       O683   2.488       .  S
Cd682       O686   2.555       .  S
Cd682       O684   2.415       .  S
C685        O689   1.263       .  A
C685       C1412   1.483       .  S
O690        C693   1.270       .  A
O690       Cd695   2.495       .  S
C691        O700   1.264       .  A
C691        O696   1.269       .  A
C691       C1450   1.479       .  S
O692        C698   1.270       .  A
O692       Cd695   2.514       .  S
C693        O701   1.266       .  A
C693       C1358   1.479       .  S
C694        O699   1.270       .  A
C694        O697   1.264       .  A
C694       C2494   1.482       .  S
Cd695       O702   2.456       .  S
Cd695       O701   2.449       .  S
Cd695       O700   2.448       .  S
Cd695       O696   2.511       .  S
Cd695       O699   2.536       .  S
Cd695       O697   2.446       .  S
C698        O702   1.265       .  A
C698       C1414   1.487       .  S
O703        C706   1.263       .  A
O703       Cd708   2.457       .  S
C704        O713   1.266       .  A
C704        O709   1.267       .  A
C704       C1342   1.474       .  S
O705        C711   1.265       .  A
O705       Cd708   2.501       .  S
C706        O714   1.267       .  A
C706       C3340   1.477       .  S
C707        O712   1.266       .  A
C707        O710   1.263       .  A
C707       C1396   1.485       .  S
Cd708       O715   2.479       .  S
Cd708       O714   2.486       .  S
Cd708       O713   2.454       .  S
Cd708       O709   2.465       .  S
Cd708       O712   2.514       .  S
Cd708       O710   2.473       .  S
C711        O715   1.264       .  A
C711       C1880   1.481       .  S
O716        C719   1.264       .  A
O716       Cd721   2.464       .  S
C717        O726   1.268       .  A
C717        O722   1.263       .  A
C717       C2782   1.480       .  S
O718        C724   1.265       .  A
O718       Cd721   2.505       .  S
C719        O727   1.266       .  A
C719       C1340   1.476       .  S
C720        O725   1.267       .  A
C720        O723   1.263       .  A
C720       C1360   1.485       .  S
Cd721       O728   2.484       .  S
Cd721       O727   2.481       .  S
Cd721       O726   2.508       .  S
Cd721       O722   2.456       .  S
Cd721       O725   2.520       .  S
Cd721       O723   2.460       .  S
C724        O728   1.263       .  A
C724       C1918   1.482       .  S
O729        C732   1.266       .  A
O729       Cd734   2.478       .  S
C730        O739   1.263       .  A
C730        O735   1.267       .  A
C730       C1304   1.476       .  S
O731        C737   1.266       .  A
O731       Cd734   2.508       .  S
C732        O740   1.265       .  A
C732       C1286   1.483       .  S
C733        O738   1.266       .  A
C733        O736   1.266       .  A
C733       C1322   1.482       .  S
Cd734       O741   2.451       .  S
Cd734       O740   2.492       .  S
Cd734       O739   2.456       .  S
Cd734       O735   2.490       .  S
Cd734       O738   2.493       .  S
Cd734       O736   2.468       .  S
C737        O741   1.264       .  A
C737       C1792   1.481       .  S
O742        C745   1.264       .  A
O742       Cd747   2.472       .  S
C743        O752   1.265       .  A
C743        O748   1.265       .  A
C743       C2926   1.479       .  S
O744        C750   1.265       .  A
O744       Cd747   2.502       .  S
C745        O753   1.265       .  A
C745       C1306   1.476       .  S
C746        O751   1.265       .  A
C746        O749   1.265       .  A
C746       C1270   1.482       .  S
Cd747       O754   2.466       .  S
Cd747       O753   2.467       .  S
Cd747       O752   2.488       .  S
Cd747       O748   2.470       .  S
Cd747       O751   2.491       .  S
Cd747       O749   2.480       .  S
C750        O754   1.264       .  A
C750       C1738   1.482       .  S
O755        C758   1.269       .  A
O755       Cd760   2.488       .  S
C756        O765   1.263       .  A
C756        O761   1.268       .  A
C756       C1232   1.477       .  S
O757        C763   1.270       .  A
O757       Cd760   2.520       .  S
C758        O766   1.266       .  A
C758       C1268   1.482       .  S
C759        O764   1.271       .  A
C759        O762   1.263       .  A
C759       C2294   1.483       .  S
Cd760       O767   2.453       .  S
Cd760       O766   2.466       .  S
Cd760       O765   2.446       .  S
Cd760       O761   2.505       .  S
Cd760       O764   2.532       .  S
Cd760       O762   2.444       .  S
C763        O767   1.265       .  A
C763       C1250   1.488       .  S
O768        C771   1.270       .  A
O768       Cd773   2.494       .  S
C769        O778   1.263       .  A
C769        O774   1.270       .  A
C769       C1214   1.477       .  S
O770        C776   1.270       .  A
O770       Cd773   2.502       .  S
C771        O779   1.266       .  A
C771       C1324   1.479       .  S
C772        O777   1.271       .  A
C772        O775   1.262       .  A
C772       C1252   1.482       .  S
Cd773       O780   2.466       .  S
Cd773       O779   2.448       .  S
Cd773       O778   2.425       .  S
Cd773       O774   2.521       .  S
Cd773       O777   2.542       .  S
Cd773       O775   2.430       .  S
C776        O780   1.266       .  A
C776       C1486   1.486       .  S
O781        C784   1.263       .  A
O781       Cd786   2.468       .  S
C782        O791   1.266       .  A
C782        O787   1.264       .  A
C782       C1178   1.471       .  S
O783        C789   1.266       .  A
O783       Cd786   2.493       .  S
C784        O792   1.267       .  A
C784       C1160   1.477       .  S
C785        O790   1.266       .  A
C785        O788   1.261       .  A
C785       C1630   1.476       .  S
Cd786       O793   2.460       .  S
Cd786       O792   2.475       .  S
Cd786       O791   2.461       .  S
Cd786       O787   2.453       .  S
Cd786       O790   2.510       .  S
Cd786       O788   2.451       .  S
C789        O793   1.264       .  A
C789       C1196   1.479       .  S
O794        C797   1.265       .  A
O794       Cd799   2.478       .  S
C795        O804   1.266       .  A
C795        O800   1.266       .  A
C795       C1180   1.474       .  S
O796        C802   1.262       .  A
O796       Cd799   2.484       .  S
C797        O805   1.265       .  A
C797       C2962   1.477       .  S
C798        O803   1.263       .  A
C798        O801   1.265       .  A
C798       C1142   1.480       .  S
Cd799       O806   2.494       .  S
Cd799       O805   2.465       .  S
Cd799       O804   2.470       .  S
Cd799       O800   2.445       .  S
Cd799       O803   2.474       .  S
Cd799       O801   2.504       .  S
C802        O806   1.262       .  A
C802       C1576   1.478       .  S
O807        C810   1.265       .  A
O807       Cd812   2.478       .  S
C808        O817   1.266       .  A
C808        O813   1.266       .  A
C808       C1234   1.480       .  S
O809        C815   1.269       .  A
O809       Cd812   2.534       .  S
C810        O818   1.266       .  A
C810       C1144   1.480       .  S
C811        O816   1.264       .  A
C811        O814   1.265       .  A
C811       C1124   1.485       .  S
Cd812       O819   2.454       .  S
Cd812       O818   2.489       .  S
Cd812       O817   2.458       .  S
Cd812       O813   2.492       .  S
Cd812       O816   2.482       .  S
Cd812       O814   2.506       .  S
C815        O819   1.263       .  A
C815       C2206   1.483       .  S
O820        C823   1.268       .  A
O820       Cd825   2.478       .  S
C821        O830   1.264       .  A
C821        O826   1.265       .  A
C821       C1216   1.482       .  S
O822        C828   1.265       .  A
O822       Cd825   2.503       .  S
C823        O831   1.266       .  A
C823       C1198   1.476       .  S
C824        O829   1.267       .  A
C824        O827   1.264       .  A
C824       C1378   1.485       .  S
Cd825       O832   2.497       .  S
Cd825       O831   2.456       .  S
Cd825       O830   2.472       .  S
Cd825       O826   2.497       .  S
Cd825       O829   2.510       .  S
Cd825       O827   2.464       .  S
C828        O832   1.263       .  A
C828       C1126   1.484       .  S
O833        C836   1.266       .  A
O833       Cd838   2.471       .  S
C834        O843   1.268       .  A
C834        O839   1.266       .  A
C834       C3412   1.473       .  S
O835        C841   1.263       .  A
O835       Cd838   2.494       .  S
C836        O844   1.263       .  A
C836       C1108   1.471       .  S
C837        O842   1.268       .  A
C837        O840   1.263       .  A
C837       C1288   1.482       .  S
Cd838       O845   2.492       .  S
Cd838       O844   2.449       .  S
Cd838       O843   2.456       .  S
Cd838       O839   2.448       .  S
Cd838       O842   2.501       .  S
Cd838       O840   2.466       .  S
C841        O845   1.263       .  A
C841       C1088   1.480       .  S
O846        C849   1.263       .  A
O846       Cd851   2.442       .  S
C847        O856   1.265       .  A
C847        O852   1.264       .  A
C847       C1106   1.472       .  S
O848        C854   1.263       .  A
O848       Cd851   2.465       .  S
C849        O857   1.268       .  A
C849       C1070   1.474       .  S
C850        O855   1.267       .  A
C850        O853   1.263       .  A
C850       C1772   1.481       .  S
Cd851       O858   2.482       .  S
Cd851       O857   2.493       .  S
Cd851       O856   2.457       .  S
Cd851       O852   2.463       .  S
Cd851       O855   2.514       .  S
Cd851       O853   2.428       .  S
C854        O858   1.266       .  A
C854       C1052   1.476       .  S
O859        C862   1.266       .  A
O859       Cd864   2.457       .  S
C860        O869   1.266       .  A
C860        O865   1.268       .  A
C860       C1036   1.474       .  S
O861        C867   1.268       .  A
O861       Cd864   2.512       .  S
C862        O870   1.264       .  A
C862       C3322   1.472       .  S
C863        O868   1.269       .  A
C863        O866   1.262       .  A
C863       C1162   1.474       .  S
Cd864       O871   2.435       .  S
Cd864       O870   2.458       .  S
Cd864       O869   2.448       .  S
Cd864       O865   2.472       .  S
Cd864       O868   2.503       .  S
Cd864       O866   2.432       .  S
C867        O871   1.263       .  A
C867       C1090   1.480       .  S
O872        C875   1.263       .  A
O872       Cd877   2.452       .  S
C873        O882   1.267       .  A
C873        O878   1.263       .  A
C873       C1034   1.473       .  S
O874        C880   1.268       .  A
O874       Cd877   2.516       .  S
C875        O883   1.267       .  A
C875       C1016   1.473       .  S
C876        O881   1.265       .  A
C876        O879   1.263       .  A
C876       C1054   1.478       .  S
Cd877       O884   2.444       .  S
Cd877       O883   2.473       .  S
Cd877       O882   2.470       .  S
Cd877       O878   2.448       .  S
Cd877       O881   2.503       .  S
Cd877       O879   2.445       .  S
C880        O884   1.262       .  A
C880       C1612   1.477       .  S
O885        C888   1.265       .  A
O885       Cd890   2.467       .  S
C886        O895   1.264       .  A
C886        O891   1.265       .  A
C886       C1018   1.474       .  S
O887        C893   1.266       .  A
O887       Cd890   2.505       .  S
C888        O896   1.267       .  A
C888        C998   1.476       .  S
C889        O894   1.263       .  A
C889        O892   1.263       .  A
C889        C980   1.480       .  S
Cd890       O897   2.478       .  S
Cd890       O896   2.462       .  S
Cd890       O895   2.464       .  S
Cd890       O891   2.475       .  S
Cd890       O894   2.489       .  S
Cd890       O892   2.494       .  S
C893        O897   1.264       .  A
C893       C2440   1.484       .  S
O898        C901   1.264       .  A
O898       Cd903   2.481       .  S
C899        O908   1.265       .  A
C899        O904   1.266       .  A
C899       C1072   1.477       .  S
O900        C906   1.267       .  A
O900       Cd903   2.479       .  S
C901        O909   1.263       .  A
C901        C962   1.476       .  S
C902        O907   1.266       .  A
C902        O905   1.262       .  A
C902       C2710   1.479       .  S
Cd903       O910   2.461       .  S
Cd903       O909   2.475       .  S
Cd903       O908   2.474       .  S
Cd903       O904   2.467       .  S
Cd903       O907   2.508       .  S
Cd903       O905   2.454       .  S
C906        O910   1.266       .  A
C906        C982   1.478       .  S
O911        C914   1.265       .  A
O911       Cd916   2.491       .  S
C912        O921   1.265       .  A
C912        O917   1.267       .  A
C912       C3466   1.475       .  S
O913        C919   1.268       .  A
O913       Cd916   2.498       .  S
C914        O922   1.264       .  A
C914        C964   1.477       .  S
C915        O920   1.264       .  A
C915        O918   1.263       .  A
C915        C944   1.476       .  S
Cd916       O923   2.440       .  S
Cd916       O922   2.452       .  S
Cd916       O921   2.461       .  S
Cd916       O917   2.459       .  S
Cd916       O920   2.483       .  S
Cd916       O918   2.470       .  S
C919        O923   1.262       .  A
C919       C2258   1.474       .  S
O924        C927   1.269       .  A
O924       Cd929   2.491       .  S
C925        O934   1.263       .  A
C925        O930   1.268       .  A
C925       C1000   1.473       .  S
O926        C932   1.269       .  A
O926       Cd929   2.512       .  S
C927        O935   1.264       .  A
C927       C3358   1.476       .  S
C928        O933   1.263       .  A
C928        O931   1.267       .  A
C928        C946   1.480       .  S
Cd929       O936   2.448       .  S
Cd929       O935   2.447       .  S
Cd929       O934   2.437       .  S
Cd929       O930   2.485       .  S
Cd929       O933   2.454       .  S
Cd929       O931   2.507       .  S
C932        O936   1.263       .  A
C932       C2134   1.479       .  S
C937        C945   1.486       .  S
C937        C938   1.403       .  A
C937        C942   1.407       .  A
C938        C939   1.397       .  A
C938        H947   1.084       .  S
C939        C940   1.407       .  A
C939        H948   1.082       .  S
C940        C943   1.487       .  S
C940        C941   1.405       .  A
C941        C942   1.402       .  A
C941        H949   1.084       .  S
C942        H950   1.082       .  S
C943        H951   1.087       .  S
C943        C944   1.347       .  D
C944        H952   1.085       .  S
C945        H953   1.087       .  S
C945        C946   1.347       .  D
C946        H954   1.085       .  S
C955        C963   1.485       .  S
C955        C956   1.402       .  A
C955        C960   1.407       .  A
C956        C957   1.397       .  A
C956        H965   1.084       .  S
C957        C958   1.407       .  A
C957        H966   1.081       .  S
C958        C961   1.488       .  S
C958        C959   1.405       .  A
C959        C960   1.401       .  A
C959        H967   1.084       .  S
C960        H968   1.082       .  S
C961        H969   1.087       .  S
C961        C962   1.346       .  D
C962        H970   1.085       .  S
C963        H971   1.087       .  S
C963        C964   1.346       .  D
C964        H972   1.085       .  S
C973        C981   1.490       .  S
C973        C974   1.404       .  A
C973        C978   1.408       .  A
C974        C975   1.400       .  A
C974        H983   1.084       .  S
C975        C976   1.408       .  A
C975        H984   1.081       .  S
C976        C979   1.491       .  S
C976        C977   1.404       .  A
C977        C978   1.400       .  A
C977        H985   1.084       .  S
C978        H986   1.081       .  S
C979        H987   1.087       .  S
C979        C980   1.347       .  D
C980        H988   1.085       .  S
C981        H989   1.087       .  S
C981        C982   1.348       .  D
C982        H990   1.085       .  S
C991        C999   1.491       .  S
C991        C992   1.404       .  A
C991        C996   1.409       .  A
C992        C993   1.400       .  A
C992       H1001   1.084       .  S
C993        C994   1.409       .  A
C993       H1002   1.079       .  S
C994        C997   1.490       .  S
C994        C995   1.403       .  A
C995        C996   1.396       .  A
C995       H1003   1.084       .  S
C996       H1004   1.080       .  S
C997       H1005   1.087       .  S
C997        C998   1.346       .  D
C998       H1006   1.083       .  S
C999       H1007   1.087       .  S
C999       C1000   1.345       .  D
C1000      H1008   1.083       .  S
C1009      C1017   1.485       .  S
C1009      C1010   1.403       .  A
C1009      C1014   1.406       .  A
C1010      C1011   1.399       .  A
C1010      H1019   1.084       .  S
C1011      C1012   1.409       .  A
C1011      H1020   1.081       .  S
C1012      C1015   1.486       .  S
C1012      C1013   1.403       .  A
C1013      C1014   1.397       .  A
C1013      H1021   1.084       .  S
C1014      H1022   1.082       .  S
C1015      H1023   1.087       .  S
C1015      C1016   1.344       .  D
C1016      H1024   1.084       .  S
C1017      H1025   1.087       .  S
C1017      C1018   1.345       .  D
C1018      H1026   1.085       .  S
C1027      C1035   1.489       .  S
C1027      C1028   1.404       .  A
C1027      C1032   1.408       .  A
C1028      C1029   1.399       .  A
C1028      H1037   1.083       .  S
C1029      C1030   1.408       .  A
C1029      H1038   1.081       .  S
C1030      C1033   1.486       .  S
C1030      C1031   1.402       .  A
C1031      C1032   1.397       .  A
C1031      H1039   1.083       .  S
C1032      H1040   1.080       .  S
C1033      H1041   1.088       .  S
C1033      C1034   1.343       .  D
C1034      H1042   1.085       .  S
C1035      H1043   1.087       .  S
C1035      C1036   1.346       .  D
C1036      H1044   1.084       .  S
C1045      C1053   1.487       .  S
C1045      C1046   1.403       .  A
C1045      C1050   1.408       .  A
C1046      C1047   1.397       .  A
C1046      H1055   1.084       .  S
C1047      C1048   1.407       .  A
C1047      H1056   1.081       .  S
C1048      C1051   1.488       .  S
C1048      C1049   1.404       .  A
C1049      C1050   1.401       .  A
C1049      H1057   1.084       .  S
C1050      H1058   1.081       .  S
C1051      H1059   1.087       .  S
C1051      C1052   1.346       .  D
C1052      H1060   1.085       .  S
C1053      H1061   1.087       .  S
C1053      C1054   1.348       .  D
C1054      H1062   1.084       .  S
C1063      C1071   1.491       .  S
C1063      C1064   1.404       .  A
C1063      C1068   1.410       .  A
C1064      C1065   1.396       .  A
C1064      H1073   1.084       .  S
C1065      C1066   1.407       .  A
C1065      H1074   1.081       .  S
C1066      C1069   1.489       .  S
C1066      C1067   1.403       .  A
C1067      C1068   1.401       .  A
C1067      H1075   1.084       .  S
C1068      H1076   1.079       .  S
C1069      H1077   1.087       .  S
C1069      C1070   1.345       .  D
C1070      H1078   1.085       .  S
C1071      H1079   1.087       .  S
C1071      C1072   1.347       .  D
C1072      H1080   1.082       .  S
C1081      C1089   1.485       .  S
C1081      C1082   1.403       .  A
C1081      C1086   1.407       .  A
C1082      C1083   1.398       .  A
C1082      H1091   1.084       .  S
C1083      C1084   1.407       .  A
C1083      H1092   1.082       .  S
C1084      C1087   1.490       .  S
C1084      C1085   1.406       .  A
C1085      C1086   1.403       .  A
C1085      H1093   1.084       .  S
C1086      H1094   1.082       .  S
C1087      H1095   1.087       .  S
C1087      C1088   1.348       .  D
C1088      H1096   1.085       .  S
C1089      H1097   1.088       .  S
C1089      C1090   1.347       .  D
C1090      H1098   1.086       .  S
C1099      C1107   1.485       .  S
C1099      C1100   1.402       .  A
C1099      C1104   1.408       .  A
C1100      C1101   1.397       .  A
C1100      H1109   1.084       .  S
C1101      C1102   1.408       .  A
C1101      H1110   1.080       .  S
C1102      C1105   1.485       .  S
C1102      C1103   1.403       .  A
C1103      C1104   1.396       .  A
C1103      H1111   1.084       .  S
C1104      H1112   1.081       .  S
C1105      H1113   1.087       .  S
C1105      C1106   1.345       .  D
C1106      H1114   1.084       .  S
C1107      H1115   1.087       .  S
C1107      C1108   1.344       .  D
C1108      H1116   1.084       .  S
C1117      C1125   1.493       .  S
C1117      C1118   1.406   1_655  A
C1117      C1122   1.407       .  A
C1118      C1119   1.404       .  A
C1118      H1127   1.084   1_455  S
C1119      C1120   1.409       .  A
C1119      H1128   1.081       .  S
C1120      C1123   1.494       .  S
C1120      C1121   1.405       .  A
C1121      C1122   1.401   1_455  A
C1121      H1129   1.084       .  S
C1122      H1130   1.082       .  S
C1123      H1131   1.087       .  S
C1123      C1124   1.349       .  D
C1124      H1132   1.085       .  S
C1125      H1133   1.087       .  S
C1125      C1126   1.350       .  D
C1126      H1134   1.085       .  S
C1135      C1143   1.489       .  S
C1135      C1136   1.404       .  A
C1135      C1140   1.407       .  A
C1136      C1137   1.401       .  A
C1136      H1145   1.084       .  S
C1137      C1138   1.407       .  A
C1137      H1146   1.081       .  S
C1138      C1141   1.490       .  S
C1138      C1139   1.405       .  A
C1139      C1140   1.401       .  A
C1139      H1147   1.084       .  S
C1140      H1148   1.082       .  S
C1141      H1149   1.088       .  S
C1141      C1142   1.348       .  D
C1142      H1150   1.085       .  S
C1143      H1151   1.087       .  S
C1143      C1144   1.347       .  D
C1144      H1152   1.086       .  S
C1153      C1161   1.491       .  S
C1153      C1154   1.404       .  A
C1153      C1158   1.408       .  A
C1154      C1155   1.401       .  A
C1154      H1163   1.084       .  S
C1155      C1156   1.410       .  A
C1155      H1164   1.079       .  S
C1156      C1159   1.490       .  S
C1156      C1157   1.403       .  A
C1157      C1158   1.396       .  A
C1157      H1165   1.084       .  S
C1158      H1166   1.080       .  S
C1159      H1167   1.087       .  S
C1159      C1160   1.345       .  D
C1160      H1168   1.083       .  S
C1161      H1169   1.087       .  S
C1161      C1162   1.345       .  D
C1162      H1170   1.083       .  S
C1171      C1179   1.484       .  S
C1171      C1172   1.403       .  A
C1171      C1176   1.407       .  A
C1172      C1173   1.396       .  A
C1172      H1181   1.084       .  S
C1173      C1174   1.406   1_455  A
C1173      H1182   1.082   1_455  S
C1174      C1177   1.483       .  S
C1174      C1175   1.403   1_655  A
C1175      C1176   1.399       .  A
C1175      H1183   1.084       .  S
C1176      H1184   1.081       .  S
C1177      H1185   1.087       .  S
C1177      C1178   1.344       .  D
C1178      H1186   1.085       .  S
C1179      H1187   1.087       .  S
C1179      C1180   1.345       .  D
C1180      H1188   1.085       .  S
C1189      C1197   1.491       .  S
C1189      C1190   1.405       .  A
C1189      C1194   1.408       .  A
C1190      C1191   1.402       .  A
C1190      H1199   1.083       .  S
C1191      C1192   1.409       .  A
C1191      H1200   1.080       .  S
C1192      C1195   1.492       .  S
C1192      C1193   1.404       .  A
C1193      C1194   1.397       .  A
C1193      H1201   1.084       .  S
C1194      H1202   1.080       .  S
C1195      H1203   1.087       .  S
C1195      C1196   1.348       .  D
C1196      H1204   1.083       .  S
C1197      H1205   1.087       .  S
C1197      C1198   1.347       .  D
C1198      H1206   1.084       .  S
C1207      C1215   1.493       .  S
C1207      C1208   1.403       .  A
C1207      C1212   1.410       .  A
C1208      C1209   1.396   1_556  A
C1208      H1217   1.083       .  S
C1209      C1210   1.408       .  A
C1209      H1218   1.082       .  S
C1210      C1213   1.494       .  S
C1210      C1211   1.405       .  A
C1211      C1212   1.405   1_554  A
C1211      H1219   1.083       .  S
C1212      H1220   1.080       .  S
C1213      H1221   1.087       .  S
C1213      C1214   1.347       .  D
C1214      H1222   1.085       .  S
C1215      H1223   1.087       .  S
C1215      C1216   1.348       .  D
C1216      H1224   1.083       .  S
C1225      C1233   1.488       .  S
C1225      C1226   1.403       .  A
C1225      C1230   1.408       .  A
C1226      C1227   1.397   1_556  A
C1226      H1235   1.084       .  S
C1227      C1228   1.407       .  A
C1227      H1236   1.082       .  S
C1228      C1231   1.491       .  S
C1228      C1229   1.405       .  A
C1229      C1230   1.403   1_554  A
C1229      H1237   1.083       .  S
C1230      H1238   1.081       .  S
C1231      H1239   1.087       .  S
C1231      C1232   1.347       .  D
C1232      H1240   1.085       .  S
C1233      H1241   1.087       .  S
C1233      C1234   1.347       .  D
C1234      H1242   1.085       .  S
C1243      C1251   1.499       .  S
C1243      C1244   1.407       .  A
C1243      C1248   1.408       .  A
C1244      C1245   1.408   1_655  A
C1244      H1253   1.083       .  S
C1245      C1246   1.410       .  A
C1245      H1254   1.080       .  S
C1246      C1249   1.496       .  S
C1246      C1247   1.404       .  A
C1247      C1248   1.397   1_455  A
C1247      H1255   1.084       .  S
C1248      H1256   1.081       .  S
C1249      H1257   1.087       .  S
C1249      C1250   1.351       .  D
C1250      H1258   1.084       .  S
C1251      H1259   1.086       .  S
C1251      C1252   1.349       .  D
C1252      H1260   1.085       .  S
C1261      C1269   1.493       .  S
C1261      C1262   1.404       .  A
C1261      C1266   1.407       .  A
C1262      C1263   1.401       .  A
C1262      H1271   1.083       .  S
C1263      C1264   1.410       .  A
C1263      H1272   1.080       .  S
C1264      C1267   1.497       .  S
C1264      C1265   1.406       .  A
C1265      C1266   1.401       .  A
C1265      H1273   1.083       .  S
C1266      H1274   1.081       .  S
C1267      H1275   1.087       .  S
C1267      C1268   1.349       .  D
C1268      H1276   1.083       .  S
C1269      H1277   1.087       .  S
C1269      C1270   1.349       .  D
C1270      H1278   1.084       .  S
C1279      C1287   1.494       .  S
C1279      C1280   1.406       .  A
C1279      C1284   1.407       .  A
C1280      C1281   1.403       .  A
C1280      H1289   1.084       .  S
C1281      C1282   1.409       .  A
C1281      H1290   1.080       .  S
C1282      C1285   1.494       .  S
C1282      C1283   1.405       .  A
C1283      C1284   1.400       .  A
C1283      H1291   1.084       .  S
C1284      H1292   1.080       .  S
C1285      H1293   1.087       .  S
C1285      C1286   1.349       .  D
C1286      H1294   1.084       .  S
C1287      H1295   1.088       .  S
C1287      C1288   1.351       .  D
C1288      H1296   1.084       .  S
C1297      C1305   1.488       .  S
C1297      C1298   1.403   1_455  A
C1297      C1302   1.408   1_455  A
C1298      C1299   1.397       .  A
C1298      H1307   1.084   1_655  S
C1299      C1300   1.408       .  A
C1299      H1308   1.081       .  S
C1300      C1303   1.490       .  S
C1300      C1301   1.404       .  A
C1301      C1302   1.400       .  A
C1301      H1309   1.084       .  S
C1302      H1310   1.081   1_655  S
C1303      H1311   1.087       .  S
C1303      C1304   1.346       .  D
C1304      H1312   1.084       .  S
C1305      H1313   1.087       .  S
C1305      C1306   1.346       .  D
C1306      H1314   1.084       .  S
C1315      C1323   1.494       .  S
C1315      C1316   1.405       .  A
C1315      C1320   1.409       .  A
C1316      C1317   1.403       .  A
C1316      H1325   1.083       .  S
C1317      C1318   1.409       .  A
C1317      H1326   1.080       .  S
C1318      C1321   1.493       .  S
C1318      C1319   1.404       .  A
C1319      C1320   1.398       .  A
C1319      H1327   1.083       .  S
C1320      H1328   1.081       .  S
C1321      H1329   1.087       .  S
C1321      C1322   1.349       .  D
C1322      H1330   1.084       .  S
C1323      H1331   1.087       .  S
C1323      C1324   1.347       .  D
C1324      H1332   1.084       .  S
C1333      C1341   1.486       .  S
C1333      C1334   1.402       .  A
C1333      C1338   1.407       .  A
C1334      C1335   1.399       .  A
C1334      H1343   1.084       .  S
C1335      C1336   1.410       .  A
C1335      H1344   1.080       .  S
C1336      C1339   1.491       .  S
C1336      C1337   1.404       .  A
C1337      C1338   1.398       .  A
C1337      H1345   1.084       .  S
C1338      H1346   1.082       .  S
C1339      H1347   1.087       .  S
C1339      C1340   1.346       .  D
C1340      H1348   1.083       .  S
C1341      H1349   1.087       .  S
C1341      C1342   1.346       .  D
C1342      H1350   1.085       .  S
C1351      C1359   1.495       .  S
C1351      C1352   1.405       .  A
C1351      C1356   1.409       .  A
C1352      C1353   1.397       .  A
C1352      H1361   1.084       .  S
C1353      C1354   1.407       .  A
C1353      H1362   1.081       .  S
C1354      C1357   1.493       .  S
C1354      C1355   1.406       .  A
C1355      C1356   1.405       .  A
C1355      H1363   1.083       .  S
C1356      H1364   1.080       .  S
C1357      H1365   1.087       .  S
C1357      C1358   1.348       .  D
C1358      H1366   1.085       .  S
C1359      H1367   1.087       .  S
C1359      C1360   1.351       .  D
C1360      H1368   1.083       .  S
C1369      C1377   1.494       .  S
C1369      C1370   1.402       .  A
C1369      C1374   1.408       .  A
C1370      C1371   1.398       .  A
C1370      H1379   1.084       .  S
C1371      C1372   1.412       .  A
C1371      H1380   1.078       .  S
C1372      C1375   1.506       .  S
C1372      C1373   1.408       .  A
C1373      C1374   1.407       .  A
C1373      H1381   1.083       .  S
C1374      H1382   1.081       .  S
C1375      H1383   1.086       .  S
C1375      C1376   1.350       .  D
C1376      H1384   1.080       .  S
C1377      H1385   1.087       .  S
C1377      C1378   1.349       .  D
C1378      H1386   1.084       .  S
C1387      C1395   1.497       .  S
C1387      C1388   1.405       .  A
C1387      C1392   1.410       .  A
C1388      C1389   1.398       .  A
C1388      H1397   1.083       .  S
C1389      C1390   1.408       .  A
C1389      H1398   1.080       .  S
C1390      C1393   1.496       .  S
C1390      C1391   1.406       .  A
C1391      C1392   1.404       .  A
C1391      H1399   1.083       .  S
C1392      H1400   1.080       .  S
C1393      H1401   1.087       .  S
C1393      C1394   1.349       .  D
C1394      H1402   1.084       .  S
C1395      H1403   1.087       .  S
C1395      C1396   1.351       .  D
C1396      H1404   1.083       .  S
C1405      C1413   1.495       .  S
C1405      C1406   1.404       .  A
C1405      C1410   1.410       .  A
C1406      C1407   1.398       .  A
C1406      H1415   1.084       .  S
C1407      C1408   1.408       .  A
C1407      H1416   1.082       .  S
C1408      C1411   1.499       .  S
C1408      C1409   1.406       .  A
C1409      C1410   1.408       .  A
C1409      H1417   1.083       .  S
C1410      H1418   1.081       .  S
C1411      H1419   1.086       .  S
C1411      C1412   1.348       .  D
C1412      H1420   1.086       .  S
C1413      H1421   1.088       .  S
C1413      C1414   1.351       .  D
C1414      H1422   1.084       .  S
C1423      C1431   1.486       .  S
C1423      C1424   1.403       .  A
C1423      C1428   1.406       .  A
C1424      C1425   1.401       .  A
C1424      H1433   1.084       .  S
C1425      C1426   1.411       .  A
C1425      H1434   1.079       .  S
C1426      C1429   1.490       .  S
C1426      C1427   1.403       .  A
C1427      C1428   1.394       .  A
C1427      H1435   1.084       .  S
C1428      H1436   1.081       .  S
C1429      H1437   1.088       .  S
C1429      C1430   1.346       .  D
C1430      H1438   1.083       .  S
C1431      H1439   1.087       .  S
C1431      C1432   1.345       .  D
C1432      H1440   1.084       .  S
C1441      C1449   1.495       .  S
C1441      C1442   1.405       .  A
C1441      C1446   1.408       .  A
C1442      C1443   1.404   1_556  A
C1442      H1451   1.084       .  S
C1443      C1444   1.410       .  A
C1443      H1452   1.081       .  S
C1444      C1447   1.494       .  S
C1444      C1445   1.403       .  A
C1445      C1446   1.398   1_554  A
C1445      H1453   1.084       .  S
C1446      H1454   1.081       .  S
C1447      H1455   1.087       .  S
C1447      C1448   1.348       .  D
C1448      H1456   1.084       .  S
C1449      H1457   1.087       .  S
C1449      C1450   1.348       .  D
C1450      H1458   1.084       .  S
C1459      C1467   1.496       .  S
C1459      C1460   1.403       .  A
C1459      C1464   1.409       .  A
C1460      C1461   1.402       .  A
C1460      H1469   1.084       .  S
C1461      C1462   1.411       .  A
C1461      H1470   1.080       .  S
C1462      C1465   1.499       .  S
C1462      C1463   1.405       .  A
C1463      C1464   1.403       .  A
C1463      H1471   1.084       .  S
C1464      H1472   1.081       .  S
C1465      H1473   1.087       .  S
C1465      C1466   1.349       .  D
C1466      H1474   1.084       .  S
C1467      H1475   1.087       .  S
C1467      C1468   1.347       .  D
C1468      H1476   1.085       .  S
C1477      C1485   1.493       .  S
C1477      C1478   1.405       .  A
C1477      C1482   1.409       .  A
C1478      C1479   1.400       .  A
C1478      H1487   1.084       .  S
C1479      C1480   1.407       .  A
C1479      H1488   1.082       .  S
C1480      C1483   1.494       .  S
C1480      C1481   1.406       .  A
C1481      C1482   1.405       .  A
C1481      H1489   1.084       .  S
C1482      H1490   1.081       .  S
C1483      H1491   1.087       .  S
C1483      C1484   1.349       .  D
C1484      H1492   1.085       .  S
C1485      H1493   1.087       .  S
C1485      C1486   1.350       .  D
C1486      H1494   1.085       .  S
C1495      C1503   1.489       .  S
C1495      C1496   1.405       .  A
C1495      C1500   1.406       .  A
C1496      C1497   1.403   1_556  A
C1496      H1505   1.084       .  S
C1497      C1498   1.410       .  A
C1497      H1506   1.080       .  S
C1498      C1501   1.488       .  S
C1498      C1499   1.402       .  A
C1499      C1500   1.393   1_554  A
C1499      H1507   1.084       .  S
C1500      H1508   1.081       .  S
C1501      H1509   1.088       .  S
C1501      C1502   1.346       .  D
C1502      H1510   1.084       .  S
C1503      H1511   1.086       .  S
C1503      C1504   1.346       .  D
C1504      H1512   1.084       .  S
C1513      C1521   1.492       .  S
C1513      C1514   1.404       .  A
C1513      C1518   1.407       .  A
C1514      C1515   1.404       .  A
C1514      H1523   1.084       .  S
C1515      C1516   1.411       .  A
C1515      H1524   1.079       .  S
C1516      C1519   1.494       .  S
C1516      C1517   1.404       .  A
C1517      C1518   1.396       .  A
C1517      H1525   1.084       .  S
C1518      H1526   1.081       .  S
C1519      H1527   1.087       .  S
C1519      C1520   1.348       .  D
C1520      H1528   1.082       .  S
C1521      H1529   1.087       .  S
C1521      C1522   1.346       .  D
C1522      H1530   1.085       .  S
C1531      C1539   1.494       .  S
C1531      C1532   1.403       .  A
C1531      C1536   1.410       .  A
C1532      C1533   1.397       .  A
C1532      H1541   1.084       .  S
C1533      C1534   1.408       .  A
C1533      H1542   1.081       .  S
C1534      C1537   1.498       .  S
C1534      C1535   1.407       .  A
C1535      C1536   1.407       .  A
C1535      H1543   1.083       .  S
C1536      H1544   1.081       .  S
C1537      H1545   1.086       .  S
C1537      C1538   1.348       .  D
C1538      H1546   1.084       .  S
C1539      H1547   1.087       .  S
C1539      C1540   1.348       .  D
C1540      H1548   1.085       .  S
C1549      C1557   1.496       .  S
C1549      C1550   1.406       .  A
C1549      C1554   1.407       .  A
C1550      C1551   1.406   1_655  A
C1550      H1559   1.083       .  S
C1551      C1552   1.410       .  A
C1551      H1560   1.081       .  S
C1552      C1555   1.495       .  S
C1552      C1553   1.404       .  A
C1553      C1554   1.397   1_455  A
C1553      H1561   1.084       .  S
C1554      H1562   1.082       .  S
C1555      H1563   1.087       .  S
C1555      C1556   1.350       .  D
C1556      H1564   1.084       .  S
C1557      H1565   1.086       .  S
C1557      C1558   1.347       .  D
C1558      H1566   1.085       .  S
C1567      C1575   1.488       .  S
C1567      C1568   1.404       .  A
C1567      C1572   1.407       .  A
C1568      C1569   1.400       .  A
C1568      H1577   1.084       .  S
C1569      C1570   1.408       .  A
C1569      H1578   1.081       .  S
C1570      C1573   1.488       .  S
C1570      C1571   1.404       .  A
C1571      C1572   1.399       .  A
C1571      H1579   1.084       .  S
C1572      H1580   1.081       .  S
C1573      H1581   1.087       .  S
C1573      C1574   1.347       .  D
C1574      H1582   1.085       .  S
C1575      H1583   1.087       .  S
C1575      C1576   1.347       .  D
C1576      H1584   1.085       .  S
C1585      C1593   1.493       .  S
C1585      C1586   1.406       .  A
C1585      C1590   1.409       .  A
C1586      C1587   1.402       .  A
C1586      H1595   1.084       .  S
C1587      C1588   1.407       .  A
C1587      H1596   1.082       .  S
C1588      C1591   1.489       .  S
C1588      C1589   1.403       .  A
C1589      C1590   1.398       .  A
C1589      H1597   1.084       .  S
C1590      H1598   1.080       .  S
C1591      H1599   1.087       .  S
C1591      C1592   1.347       .  D
C1592      H1600   1.085       .  S
C1593      H1601   1.087       .  S
C1593      C1594   1.348       .  D
C1594      H1602   1.083       .  S
C1603      C1611   1.497       .  S
C1603      C1604   1.405       .  A
C1603      C1608   1.411       .  A
C1604      C1605   1.401       .  A
C1604      H1613   1.083       .  S
C1605      C1606   1.408       .  A
C1605      H1614   1.081       .  S
C1606      C1609   1.490       .  S
C1606      C1607   1.402       .  A
C1607      C1608   1.399       .  A
C1607      H1615   1.084       .  S
C1608      H1616   1.079       .  S
C1609      H1617   1.087       .  S
C1609      C1610   1.346       .  D
C1610      H1618   1.084       .  S
C1611      H1619   1.087       .  S
C1611      C1612   1.347       .  D
C1612      H1620   1.082       .  S
C1621      C1629   1.488       .  S
C1621      C1622   1.404       .  A
C1621      C1626   1.407       .  A
C1622      C1623   1.404       .  A
C1622      H1631   1.083       .  S
C1623      C1624   1.409       .  A
C1623      H1632   1.081       .  S
C1624      C1627   1.488       .  S
C1624      C1625   1.403       .  A
C1625      C1626   1.396       .  A
C1625      H1633   1.084       .  S
C1626      H1634   1.082       .  S
C1627      H1635   1.087       .  S
C1627      C1628   1.348       .  D
C1628      H1636   1.085       .  S
C1629      H1637   1.087       .  S
C1629      C1630   1.345       .  D
C1630      H1638   1.086       .  S
C1639      C1647   1.489       .  S
C1639      C1640   1.404       .  A
C1639      C1644   1.408       .  A
C1640      C1641   1.398   1_455  A
C1640      H1649   1.084       .  S
C1641      C1642   1.409       .  A
C1641      H1650   1.080       .  S
C1642      C1645   1.488       .  S
C1642      C1643   1.403       .  A
C1643      C1644   1.398   1_655  A
C1643      H1651   1.084       .  S
C1644      H1652   1.080       .  S
C1645      H1653   1.087       .  S
C1645      C1646   1.345       .  D
C1646      H1654   1.084       .  S
C1647      H1655   1.087       .  S
C1647      C1648   1.347       .  D
C1648      H1656   1.083       .  S
C1657      C1665   1.492       .  S
C1657      C1658   1.405       .  A
C1657      C1662   1.408       .  A
C1658      C1659   1.403       .  A
C1658      H1667   1.084       .  S
C1659      C1660   1.410       .  A
C1659      H1668   1.080       .  S
C1660      C1663   1.494       .  S
C1660      C1661   1.404       .  A
C1661      C1662   1.398       .  A
C1661      H1669   1.084       .  S
C1662      H1670   1.081       .  S
C1663      H1671   1.088       .  S
C1663      C1664   1.347       .  D
C1664      H1672   1.084       .  S
C1665      H1673   1.087       .  S
C1665      C1666   1.347       .  D
C1666      H1674   1.085       .  S
C1675      C1683   1.491       .  S
C1675      C1676   1.404       .  A
C1675      C1680   1.409       .  A
C1676      C1677   1.401   1_556  A
C1676      H1685   1.084       .  S
C1677      C1678   1.409       .  A
C1677      H1686   1.080       .  S
C1678      C1681   1.490       .  S
C1678      C1679   1.403       .  A
C1679      C1680   1.397   1_554  A
C1679      H1687   1.084       .  S
C1680      H1688   1.080       .  S
C1681      H1689   1.087       .  S
C1681      C1682   1.347       .  D
C1682      H1690   1.084       .  S
C1683      H1691   1.087       .  S
C1683      C1684   1.346       .  D
C1684      H1692   1.083       .  S
C1693      C1701   1.487       .  S
C1693      C1694   1.401       .  A
C1693      C1698   1.409       .  A
C1694      C1695   1.394   1_556  A
C1694      H1703   1.084       .  S
C1695      C1696   1.408       .  A
C1695      H1704   1.081       .  S
C1696      C1699   1.492       .  S
C1696      C1697   1.406       .  A
C1697      C1698   1.405   1_554  A
C1697      H1705   1.084       .  S
C1698      H1706   1.081       .  S
C1699      H1707   1.086       .  S
C1699      C1700   1.347       .  D
C1700      H1708   1.084       .  S
C1701      H1709   1.087       .  S
C1701      C1702   1.346       .  D
C1702      H1710   1.085       .  S
C1711      C1719   1.497       .  S
C1711      C1712   1.404   1_455  A
C1711      C1716   1.410       .  A
C1712      C1713   1.399       .  A
C1712      H1721   1.084   1_655  S
C1713      C1714   1.409       .  A
C1713      H1722   1.081       .  S
C1714      C1717   1.502       .  S
C1714      C1715   1.408       .  A
C1715      C1716   1.408   1_655  A
C1715      H1723   1.083       .  S
C1716      H1724   1.081       .  S
C1717      H1725   1.086       .  S
C1717      C1718   1.350       .  D
C1718      H1726   1.084       .  S
C1719      H1727   1.087       .  S
C1719      C1720   1.351       .  D
C1720      H1728   1.084       .  S
C1729      C1737   1.493       .  S
C1729      C1730   1.404       .  A
C1729      C1734   1.409       .  A
C1730      C1731   1.397       .  A
C1730      H1739   1.084       .  S
C1731      C1732   1.409       .  A
C1731      H1740   1.081       .  S
C1732      C1735   1.496       .  S
C1732      C1733   1.406       .  A
C1733      C1734   1.404       .  A
C1733      H1741   1.083       .  S
C1734      H1742   1.080       .  S
C1735      H1743   1.087       .  S
C1735      C1736   1.347       .  D
C1736      H1744   1.084       .  S
C1737      H1745   1.087       .  S
C1737      C1738   1.349       .  D
C1738      H1746   1.083       .  S
C1747      C1755   1.493       .  S
C1747      C1748   1.403       .  A
C1747      C1752   1.409       .  A
C1748      C1749   1.395       .  A
C1748      H1757   1.084       .  S
C1749      C1750   1.408       .  A
C1749      H1758   1.080       .  S
C1750      C1753   1.496       .  S
C1750      C1751   1.407       .  A
C1751      C1752   1.406       .  A
C1751      H1759   1.083       .  S
C1752      H1760   1.080       .  S
C1753      H1761   1.087       .  S
C1753      C1754   1.349       .  D
C1754      H1762   1.083       .  S
C1755      H1763   1.087       .  S
C1755      C1756   1.349       .  D
C1756      H1764   1.084       .  S
C1765      C1773   1.490       .  S
C1765      C1766   1.406       .  A
C1765      C1770   1.406       .  A
C1766      C1767   1.404       .  A
C1766      H1775   1.084       .  S
C1767      C1768   1.408       .  A
C1767      H1776   1.080       .  S
C1768      C1771   1.487       .  S
C1768      C1769   1.403       .  A
C1769      C1770   1.394       .  A
C1769      H1777   1.084       .  S
C1770      H1778   1.080       .  S
C1771      H1779   1.088       .  S
C1771      C1772   1.348       .  D
C1772      H1780   1.084       .  S
C1773      H1781   1.087       .  S
C1773      C1774   1.348       .  D
C1774      H1782   1.084       .  S
C1783      C1791   1.490       .  S
C1783      C1784   1.404       .  A
C1783      C1788   1.409       .  A
C1784      C1785   1.396       .  A
C1784      H1793   1.084       .  S
C1785      C1786   1.407       .  A
C1785      H1794   1.081       .  S
C1786      C1789   1.492       .  S
C1786      C1787   1.405       .  A
C1787      C1788   1.403       .  A
C1787      H1795   1.084       .  S
C1788      H1796   1.080       .  S
C1789      H1797   1.087       .  S
C1789      C1790   1.346       .  D
C1790      H1798   1.085       .  S
C1791      H1799   1.087       .  S
C1791      C1792   1.348       .  D
C1792      H1800   1.084       .  S
C1801      C1809   1.487       .  S
C1801      C1802   1.404   1_455  A
C1801      C1806   1.408   1_455  A
C1802      C1803   1.398       .  A
C1802      H1811   1.084   1_655  S
C1803      C1804   1.407       .  A
C1803      H1812   1.082       .  S
C1804      C1807   1.485       .  S
C1804      C1805   1.402       .  A
C1805      C1806   1.398       .  A
C1805      H1813   1.084       .  S
C1806      H1814   1.080   1_655  S
C1807      H1815   1.087       .  S
C1807      C1808   1.344       .  D
C1808      H1816   1.085       .  S
C1809      H1817   1.087       .  S
C1809      C1810   1.346       .  D
C1810      H1818   1.084       .  S
C1819      C1827   1.496       .  S
C1819      C1820   1.406       .  A
C1819      C1824   1.408       .  A
C1820      C1821   1.403       .  A
C1820      H1829   1.083       .  S
C1821      C1822   1.409       .  A
C1821      H1830   1.080       .  S
C1822      C1825   1.495       .  S
C1822      C1823   1.405       .  A
C1823      C1824   1.400       .  A
C1823      H1831   1.084       .  S
C1824      H1832   1.080       .  S
C1825      H1833   1.088       .  S
C1825      C1826   1.350       .  D
C1826      H1834   1.084       .  S
C1827      H1835   1.087       .  S
C1827      C1828   1.350       .  D
C1828      H1836   1.084       .  S
C1837      C1845   1.497       .  S
C1837      C1838   1.405       .  A
C1837      C1842   1.410       .  A
C1838      C1839   1.399       .  A
C1838      H1847   1.084       .  S
C1839      C1840   1.409       .  A
C1839      H1848   1.080       .  S
C1840      C1843   1.497       .  S
C1840      C1841   1.406       .  A
C1841      C1842   1.404       .  A
C1841      H1849   1.084       .  S
C1842      H1850   1.080       .  S
C1843      H1851   1.087       .  S
C1843      C1844   1.349       .  D
C1844      H1852   1.084       .  S
C1845      H1853   1.087       .  S
C1845      C1846   1.350       .  D
C1846      H1854   1.083       .  S
C1855      C1863   1.495       .  S
C1855      C1856   1.403       .  A
C1855      C1860   1.410       .  A
C1856      C1857   1.395       .  A
C1856      H1865   1.084       .  S
C1857      C1858   1.408       .  A
C1857      H1866   1.080       .  S
C1858      C1861   1.500       .  S
C1858      C1859   1.408       .  A
C1859      C1860   1.408       .  A
C1859      H1867   1.083       .  S
C1860      H1868   1.080       .  S
C1861      H1869   1.086       .  S
C1861      C1862   1.349       .  D
C1862      H1870   1.084       .  S
C1863      H1871   1.087       .  S
C1863      C1864   1.350       .  D
C1864      H1872   1.084       .  S
C1873      C1881   1.487       .  S
C1873      C1874   1.404       .  A
C1873      C1878   1.407       .  A
C1874      C1875   1.401       .  A
C1874      H1883   1.084       .  S
C1875      C1876   1.407       .  A
C1875      H1884   1.082       .  S
C1876      C1879   1.488       .  S
C1876      C1877   1.404       .  A
C1877      C1878   1.400       .  A
C1877      H1885   1.083       .  S
C1878      H1886   1.082       .  S
C1879      H1887   1.087       .  S
C1879      C1880   1.347       .  D
C1880      H1888   1.086       .  S
C1881      H1889   1.087       .  S
C1881      C1882   1.346       .  D
C1882      H1890   1.086       .  S
C1891      C1899   1.496       .  S
C1891      C1892   1.406       .  A
C1891      C1896   1.410       .  A
C1892      C1893   1.399       .  A
C1892      H1901   1.084       .  S
C1893      C1894   1.407       .  A
C1893      H1902   1.081       .  S
C1894      C1897   1.491       .  S
C1894      C1895   1.404       .  A
C1895      C1896   1.401       .  A
C1895      H1903   1.084       .  S
C1896      H1904   1.079       .  S
C1897      H1905   1.087       .  S
C1897      C1898   1.347       .  D
C1898      H1906   1.085       .  S
C1899      H1907   1.087       .  S
C1899      C1900   1.349       .  D
C1900      H1908   1.082       .  S
C1909      C1917   1.493       .  S
C1909      C1910   1.405       .  A
C1909      C1914   1.408       .  A
C1910      C1911   1.402       .  A
C1910      H1919   1.084       .  S
C1911      C1912   1.407       .  A
C1911      H1920   1.082       .  S
C1912      C1915   1.490       .  S
C1912      C1913   1.404       .  A
C1913      C1914   1.401       .  A
C1913      H1921   1.084       .  S
C1914      H1922   1.082       .  S
C1915      H1923   1.087       .  S
C1915      C1916   1.348       .  D
C1916      H1924   1.086       .  S
C1917      H1925   1.087       .  S
C1917      C1918   1.348       .  D
C1918      H1926   1.085       .  S
C1927      C1935   1.491       .  S
C1927      C1928   1.403       .  A
C1927      C1932   1.408       .  A
C1928      C1929   1.401       .  A
C1928      H1937   1.084       .  S
C1929      C1930   1.410       .  A
C1929      H1938   1.079       .  S
C1930      C1933   1.492       .  S
C1930      C1931   1.404       .  A
C1931      C1932   1.397       .  A
C1931      H1939   1.084       .  S
C1932      H1940   1.080       .  S
C1933      H1941   1.088       .  S
C1933      C1934   1.347       .  D
C1934      H1942   1.082       .  S
C1935      H1943   1.087       .  S
C1935      C1936   1.345       .  D
C1936      H1944   1.084       .  S
C1945      C1953   1.498       .  S
C1945      C1946   1.405       .  A
C1945      C1950   1.410       .  A
C1946      C1947   1.401       .  A
C1946      H1955   1.084       .  S
C1947      C1948   1.409       .  A
C1947      H1956   1.080       .  S
C1948      C1951   1.494       .  S
C1948      C1949   1.404       .  A
C1949      C1950   1.400       .  A
C1949      H1957   1.084       .  S
C1950      H1958   1.079       .  S
C1951      H1959   1.088       .  S
C1951      C1952   1.348       .  D
C1952      H1960   1.084       .  S
C1953      H1961   1.087       .  S
C1953      C1954   1.348       .  D
C1954      H1962   1.082       .  S
C1963      C1971   1.495       .  S
C1963      C1964   1.404       .  A
C1963      C1968   1.410       .  A
C1964      C1965   1.398       .  A
C1964      H1973   1.084       .  S
C1965      C1966   1.409       .  A
C1965      H1974   1.081       .  S
C1966      C1969   1.498       .  S
C1966      C1967   1.406       .  A
C1967      C1968   1.405       .  A
C1967      H1975   1.084       .  S
C1968      H1976   1.080       .  S
C1969      H1977   1.087       .  S
C1969      C1970   1.348       .  D
C1970      H1978   1.084       .  S
C1971      H1979   1.087       .  S
C1971      C1972   1.349       .  D
C1972      H1980   1.083       .  S
C1981      C1989   1.493       .  S
C1981      C1982   1.406       .  A
C1981      C1986   1.406       .  A
C1982      C1983   1.407       .  A
C1982      H1991   1.083       .  S
C1983      C1984   1.411       .  A
C1983      H1992   1.080       .  S
C1984      C1987   1.492       .  S
C1984      C1985   1.403       .  A
C1985      C1986   1.394       .  A
C1985      H1993   1.084       .  S
C1986      H1994   1.082       .  S
C1987      H1995   1.087       .  S
C1987      C1988   1.348       .  D
C1988      H1996   1.084       .  S
C1989      H1997   1.086       .  S
C1989      C1990   1.347       .  D
C1990      H1998   1.086       .  S
C1999      C2007   1.489       .  S
C1999      C2000   1.403       .  A
C1999      C2004   1.409       .  A
C2000      C2001   1.396       .  A
C2000      H2009   1.084       .  S
C2001      C2002   1.408       .  A
C2001      H2010   1.079       .  S
C2002      C2005   1.490       .  S
C2002      C2003   1.404       .  A
C2003      C2004   1.398       .  A
C2003      H2011   1.084       .  S
C2004      H2012   1.079       .  S
C2005      H2013   1.088       .  S
C2005      C2006   1.346       .  D
C2006      H2014   1.082       .  S
C2007      H2015   1.087       .  S
C2007      C2008   1.345       .  D
C2008      H2016   1.082       .  S
C2017      C2025   1.495       .  S
C2017      C2018   1.403       .  A
C2017      C2022   1.410       .  A
C2018      C2019   1.397   1_556  A
C2018      H2027   1.084       .  S
C2019      C2020   1.409       .  A
C2019      H2028   1.080       .  S
C2020      C2023   1.502       .  S
C2020      C2021   1.408       .  A
C2021      C2022   1.407   1_554  A
C2021      H2029   1.083       .  S
C2022      H2030   1.080       .  S
C2023      H2031   1.086       .  S
C2023      C2024   1.350       .  D
C2024      H2032   1.083       .  S
C2025      H2033   1.087       .  S
C2025      C2026   1.349       .  D
C2026      H2034   1.083       .  S
C2035      C2043   1.501       .  S
C2035      C2036   1.407       .  A
C2035      C2040   1.411       .  A
C2036      C2037   1.404       .  A
C2036      H2045   1.083       .  S
C2037      C2038   1.408       .  A
C2037      H2046   1.081       .  S
C2038      C2041   1.496       .  S
C2038      C2039   1.405       .  A
C2039      C2040   1.401       .  A
C2039      H2047   1.084       .  S
C2040      H2048   1.079       .  S
C2041      H2049   1.087       .  S
C2041      C2042   1.351       .  D
C2042      H2050   1.084       .  S
C2043      H2051   1.087       .  S
C2043      C2044   1.349       .  D
C2044      H2052   1.082       .  S
C2053      C2061   1.497       .  S
C2053      C2054   1.405       .  A
C2053      C2058   1.409       .  A
C2054      C2055   1.402       .  A
C2054      H2063   1.084       .  S
C2055      C2056   1.409       .  A
C2055      H2064   1.082       .  S
C2056      C2059   1.499       .  S
C2056      C2057   1.406       .  A
C2057      C2058   1.405       .  A
C2057      H2065   1.083       .  S
C2058      H2066   1.081       .  S
C2059      H2067   1.087       .  S
C2059      C2060   1.349       .  D
C2060      H2068   1.085       .  S
C2061      H2069   1.087       .  S
C2061      C2062   1.351       .  D
C2062      H2070   1.085       .  S
C2071      C2079   1.491       .  S
C2071      C2072   1.403       .  A
C2071      C2076   1.409       .  A
C2072      C2073   1.397   1_556  A
C2072      H2081   1.084       .  S
C2073      C2074   1.408       .  A
C2073      H2082   1.080       .  S
C2074      C2077   1.491       .  S
C2074      C2075   1.404       .  A
C2075      C2076   1.402   1_554  A
C2075      H2083   1.084       .  S
C2076      H2084   1.080       .  S
C2077      H2085   1.087       .  S
C2077      C2078   1.346       .  D
C2078      H2086   1.084       .  S
C2079      H2087   1.087       .  S
C2079      C2080   1.347       .  D
C2080      H2088   1.083       .  S
C2089      C2097   1.492       .  S
C2089      C2090   1.403       .  A
C2089      C2094   1.410       .  A
C2090      C2091   1.396       .  A
C2090      H2099   1.084       .  S
C2091      C2092   1.407       .  A
C2091      H2100   1.081       .  S
C2092      C2095   1.493       .  S
C2092      C2093   1.406       .  A
C2093      C2094   1.404       .  A
C2093      H2101   1.083       .  S
C2094      H2102   1.080       .  S
C2095      H2103   1.087       .  S
C2095      C2096   1.347       .  D
C2096      H2104   1.084       .  S
C2097      H2105   1.088       .  S
C2097      C2098   1.348       .  D
C2098      H2106   1.084       .  S
C2107      C2115   1.499       .  S
C2107      C2108   1.407       .  A
C2107      C2112   1.409       .  A
C2108      C2109   1.407       .  A
C2108      H2117   1.083       .  S
C2109      C2110   1.409       .  A
C2109      H2118   1.081       .  S
C2110      C2113   1.494       .  S
C2110      C2111   1.403       .  A
C2111      C2112   1.397       .  A
C2111      H2119   1.084       .  S
C2112      H2120   1.081       .  S
C2113      H2121   1.087       .  S
C2113      C2114   1.350       .  D
C2114      H2122   1.084       .  S
C2115      H2123   1.086       .  S
C2115      C2116   1.348       .  D
C2116      H2124   1.084       .  S
C2125      C2133   1.495       .  S
C2125      C2126   1.405       .  A
C2125      C2130   1.407       .  A
C2126      C2127   1.404       .  A
C2126      H2135   1.084       .  S
C2127      C2128   1.411       .  A
C2127      H2136   1.080       .  S
C2128      C2131   1.498       .  S
C2128      C2129   1.405       .  A
C2129      C2130   1.400       .  A
C2129      H2137   1.083       .  S
C2130      H2138   1.082       .  S
C2131      H2139   1.087       .  S
C2131      C2132   1.349       .  D
C2132      H2140   1.084       .  S
C2133      H2141   1.087       .  S
C2133      C2134   1.348       .  D
C2134      H2142   1.085       .  S
C2143      C2151   1.492       .  S
C2143      C2144   1.404       .  A
C2143      C2148   1.409       .  A
C2144      C2145   1.399   1_545  A
C2144      H2153   1.084       .  S
C2145      C2146   1.408       .  A
C2145      H2154   1.080       .  S
C2146      C2149   1.492       .  S
C2146      C2147   1.404       .  A
C2147      C2148   1.399   1_565  A
C2147      H2155   1.084       .  S
C2148      H2156   1.080       .  S
C2149      H2157   1.087       .  S
C2149      C2150   1.348       .  D
C2150      H2158   1.083       .  S
C2151      H2159   1.087       .  S
C2151      C2152   1.346       .  D
C2152      H2160   1.083       .  S
C2161      C2169   1.495       .  S
C2161      C2162   1.407       .  A
C2161      C2166   1.407       .  A
C2162      C2163   1.404       .  A
C2162      H2171   1.084       .  S
C2163      C2164   1.407       .  A
C2163      H2172   1.082       .  S
C2164      C2167   1.495       .  S
C2164      C2165   1.406       .  A
C2165      C2166   1.404       .  A
C2165      H2173   1.084       .  S
C2166      H2174   1.082       .  S
C2167      H2175   1.087       .  S
C2167      C2168   1.351       .  D
C2168      H2176   1.085       .  S
C2169      H2177   1.087       .  S
C2169      C2170   1.351       .  D
C2170      H2178   1.085       .  S
C2179      C2187   1.493       .  S
C2179      C2180   1.403       .  A
C2179      C2184   1.409       .  A
C2180      C2181   1.399       .  A
C2180      H2189   1.084       .  S
C2181      C2182   1.409       .  A
C2181      H2190   1.080       .  S
C2182      C2185   1.498       .  S
C2182      C2183   1.407       .  A
C2183      C2184   1.404       .  A
C2183      H2191   1.084       .  S
C2184      H2192   1.081       .  S
C2185      H2193   1.087       .  S
C2185      C2186   1.350       .  D
C2186      H2194   1.084       .  S
C2187      H2195   1.087       .  S
C2187      C2188   1.348       .  D
C2188      H2196   1.084       .  S
C2197      C2205   1.500       .  S
C2197      C2198   1.407       .  A
C2197      C2202   1.409       .  A
C2198      C2199   1.406       .  A
C2198      H2207   1.083       .  S
C2199      C2200   1.409       .  A
C2199      H2208   1.080       .  S
C2200      C2203   1.496       .  S
C2200      C2201   1.405       .  A
C2201      C2202   1.398       .  A
C2201      H2209   1.084       .  S
C2202      H2210   1.080       .  S
C2203      H2211   1.087       .  S
C2203      C2204   1.351       .  D
C2204      H2212   1.083       .  S
C2205      H2213   1.087       .  S
C2205      C2206   1.350       .  D
C2206      H2214   1.084       .  S
C2215      C2223   1.498       .  S
C2215      C2216   1.405       .  A
C2215      C2220   1.410       .  A
C2216      C2217   1.402       .  A
C2216      H2225   1.083       .  S
C2217      C2218   1.409       .  A
C2217      H2226   1.080       .  S
C2218      C2221   1.496       .  S
C2218      C2219   1.405       .  A
C2219      C2220   1.401       .  A
C2219      H2227   1.084       .  S
C2220      H2228   1.080       .  S
C2221      H2229   1.087       .  S
C2221      C2222   1.350       .  D
C2222      H2230   1.083       .  S
C2223      H2231   1.087       .  S
C2223      C2224   1.348       .  D
C2224      H2232   1.083       .  S
C2233      C2241   1.497       .  S
C2233      C2234   1.405       .  A
C2233      C2238   1.410       .  A
C2234      C2235   1.399   1_545  A
C2234      H2243   1.084       .  S
C2235      C2236   1.408       .  A
C2235      H2244   1.081       .  S
C2236      C2239   1.497       .  S
C2236      C2237   1.406       .  A
C2237      C2238   1.406   1_565  A
C2237      H2245   1.083       .  S
C2238      H2246   1.080       .  S
C2239      H2247   1.087       .  S
C2239      C2240   1.348       .  D
C2240      H2248   1.085       .  S
C2241      H2249   1.087       .  S
C2241      C2242   1.351       .  D
C2242      H2250   1.083       .  S
C2251      C2259   1.485       .  S
C2251      C2252   1.401       .  A
C2251      C2256   1.408       .  A
C2252      C2253   1.398       .  A
C2252      H2261   1.084       .  S
C2253      C2254   1.410       .  A
C2253      H2262   1.080       .  S
C2254      C2257   1.490       .  S
C2254      C2255   1.403       .  A
C2255      C2256   1.398       .  A
C2255      H2263   1.084       .  S
C2256      H2264   1.082       .  S
C2257      H2265   1.087       .  S
C2257      C2258   1.344       .  D
C2258      H2266   1.084       .  S
C2259      H2267   1.087       .  S
C2259      C2260   1.344       .  D
C2260      H2268   1.085       .  S
C2269      C2277   1.487       .  S
C2269      C2270   1.403       .  A
C2269      C2274   1.408       .  A
C2270      C2271   1.397   1_545  A
C2270      H2279   1.084       .  S
C2271      C2272   1.408       .  A
C2271      H2280   1.081       .  S
C2272      C2275   1.488       .  S
C2272      C2273   1.404       .  A
C2273      C2274   1.399   1_565  A
C2273      H2281   1.084       .  S
C2274      H2282   1.080       .  S
C2275      H2283   1.087       .  S
C2275      C2276   1.345       .  D
C2276      H2284   1.084       .  S
C2277      H2285   1.087       .  S
C2277      C2278   1.346       .  D
C2278      H2286   1.083       .  S
C2287      C2295   1.496       .  S
C2287      C2288   1.405       .  A
C2287      C2292   1.410       .  A
C2288      C2289   1.400       .  A
C2288      H2297   1.084       .  S
C2289      C2290   1.408       .  A
C2289      H2298   1.082       .  S
C2290      C2293   1.498       .  S
C2290      C2291   1.406       .  A
C2291      C2292   1.406       .  A
C2291      H2299   1.083       .  S
C2292      H2300   1.081       .  S
C2293      H2301   1.087       .  S
C2293      C2294   1.349       .  D
C2294      H2302   1.085       .  S
C2295      H2303   1.087       .  S
C2295      C2296   1.350       .  D
C2296      H2304   1.085       .  S
C2305      C2313   1.492       .  S
C2305      C2306   1.403       .  A
C2305      C2310   1.410       .  A
C2306      C2307   1.397   1_554  A
C2306      H2315   1.084       .  S
C2307      C2308   1.408       .  A
C2307      H2316   1.081       .  S
C2308      C2311   1.492       .  S
C2308      C2309   1.404       .  A
C2309      C2310   1.403   1_556  A
C2309      H2317   1.084       .  S
C2310      H2318   1.080       .  S
C2311      H2319   1.087       .  S
C2311      C2312   1.346       .  D
C2312      H2320   1.085       .  S
C2313      H2321   1.087       .  S
C2313      C2314   1.347       .  D
C2314      H2322   1.083       .  S
C2323      C2331   1.498       .  S
C2323      C2324   1.406       .  A
C2323      C2328   1.411       .  A
C2324      C2325   1.402       .  A
C2324      H2333   1.084       .  S
C2325      C2326   1.407       .  A
C2325      H2334   1.081       .  S
C2326      C2329   1.493       .  S
C2326      C2327   1.404       .  A
C2327      C2328   1.401       .  A
C2327      H2335   1.084       .  S
C2328      H2336   1.079       .  S
C2329      H2337   1.088       .  S
C2329      C2330   1.348       .  D
C2330      H2338   1.085       .  S
C2331      H2339   1.088       .  S
C2331      C2332   1.349       .  D
C2332      H2340   1.083       .  S
C2341      C2349   1.499       .  S
C2341      C2342   1.407       .  A
C2341      C2346   1.408       .  A
C2342      C2343   1.407       .  A
C2342      H2351   1.083       .  S
C2343      C2344   1.410       .  A
C2343      H2352   1.081       .  S
C2344      C2347   1.498       .  S
C2344      C2345   1.406       .  A
C2345      C2346   1.400       .  A
C2345      H2353   1.084       .  S
C2346      H2354   1.081       .  S
C2347      H2355   1.087       .  S
C2347      C2348   1.352       .  D
C2348      H2356   1.084       .  S
C2349      H2357   1.087       .  S
C2349      C2350   1.349       .  D
C2350      H2358   1.085       .  S
C2359      C2367   1.489       .  S
C2359      C2360   1.403       .  A
C2359      C2364   1.408       .  A
C2360      C2361   1.399   1_556  A
C2360      H2369   1.084       .  S
C2361      C2362   1.409       .  A
C2361      H2370   1.080       .  S
C2362      C2365   1.489       .  S
C2362      C2363   1.403       .  A
C2363      C2364   1.397   1_554  A
C2363      H2371   1.084       .  S
C2364      H2372   1.080       .  S
C2365      H2373   1.087       .  S
C2365      C2366   1.346       .  D
C2366      H2374   1.083       .  S
C2367      H2375   1.087       .  S
C2367      C2368   1.345       .  D
C2368      H2376   1.084       .  S
C2377      C2385   1.488       .  S
C2377      C2378   1.403       .  A
C2377      C2382   1.407       .  A
C2378      C2379   1.399       .  A
C2378      H2387   1.084       .  S
C2379      C2380   1.409       .  A
C2379      H2388   1.080       .  S
C2380      C2383   1.493       .  S
C2380      C2381   1.405       .  A
C2381      C2382   1.401       .  A
C2381      H2389   1.084       .  S
C2382      H2390   1.082       .  S
C2383      H2391   1.087       .  S
C2383      C2384   1.347       .  D
C2384      H2392   1.083       .  S
C2385      H2393   1.087       .  S
C2385      C2386   1.347       .  D
C2386      H2394   1.085       .  S
C2395      C2403   1.493       .  S
C2395      C2396   1.405       .  A
C2395      C2400   1.407       .  A
C2396      C2397   1.402   1_545  A
C2396      H2405   1.084       .  S
C2397      C2398   1.409       .  A
C2397      H2406   1.081       .  S
C2398      C2401   1.497       .  S
C2398      C2399   1.407   1_565  A
C2399      C2400   1.405       .  A
C2399      H2407   1.083   1_545  S
C2400      H2408   1.082       .  S
C2401      H2409   1.087       .  S
C2401      C2402   1.350       .  D
C2402      H2410   1.085       .  S
C2403      H2411   1.087       .  S
C2403      C2404   1.350       .  D
C2404      H2412   1.085       .  S
C2413      C2421   1.489       .  S
C2413      C2414   1.403       .  A
C2413      C2418   1.410       .  A
C2414      C2415   1.394       .  A
C2414      H2423   1.084       .  S
C2415      C2416   1.406       .  A
C2415      H2424   1.082       .  S
C2416      C2419   1.490       .  S
C2416      C2417   1.405       .  A
C2417      C2418   1.405       .  A
C2417      H2425   1.083       .  S
C2418      H2426   1.081       .  S
C2419      H2427   1.086       .  S
C2419      C2420   1.346       .  D
C2420      H2428   1.086       .  S
C2421      H2429   1.088       .  S
C2421      C2422   1.348       .  D
C2422      H2430   1.084       .  S
C2431      C2439   1.494       .  S
C2431      C2432   1.405       .  A
C2431      C2436   1.409       .  A
C2432      C2433   1.399       .  A
C2432      H2441   1.084       .  S
C2433      C2434   1.407       .  A
C2433      H2442   1.080       .  S
C2434      C2437   1.493       .  S
C2434      C2435   1.406       .  A
C2435      C2436   1.403       .  A
C2435      H2443   1.084       .  S
C2436      H2444   1.080       .  S
C2437      H2445   1.088       .  S
C2437      C2438   1.349       .  D
C2438      H2446   1.084       .  S
C2439      H2447   1.088       .  S
C2439      C2440   1.350       .  D
C2440      H2448   1.084       .  S
C2449      C2457   1.486       .  S
C2449      C2450   1.404       .  A
C2449      C2454   1.406       .  A
C2450      C2451   1.400       .  A
C2450      H2459   1.084       .  S
C2451      C2452   1.408       .  A
C2451      H2460   1.081       .  S
C2452      C2455   1.490       .  S
C2452      C2453   1.405       .  A
C2453      C2454   1.400       .  A
C2453      H2461   1.083       .  S
C2454      H2462   1.082       .  S
C2455      H2463   1.087       .  S
C2455      C2456   1.348       .  D
C2456      H2464   1.085       .  S
C2457      H2465   1.087       .  S
C2457      C2458   1.347       .  D
C2458      H2466   1.086       .  S
C2467      C2475   1.491       .  S
C2467      C2468   1.404       .  A
C2467      C2472   1.410       .  A
C2468      C2469   1.399   1_565  A
C2468      H2477   1.084       .  S
C2469      C2470   1.408       .  A
C2469      H2478   1.080       .  S
C2470      C2473   1.488       .  S
C2470      C2471   1.402       .  A
C2471      C2472   1.396   1_545  A
C2471      H2479   1.084       .  S
C2472      H2480   1.079       .  S
C2473      H2481   1.088       .  S
C2473      C2474   1.346       .  D
C2474      H2482   1.083       .  S
C2475      H2483   1.087       .  S
C2475      C2476   1.345       .  D
C2476      H2484   1.082       .  S
C2485      C2493   1.499       .  S
C2485      C2486   1.407       .  A
C2485      C2490   1.408       .  A
C2486      C2487   1.407       .  A
C2486      H2495   1.083       .  S
C2487      C2488   1.410       .  A
C2487      H2496   1.080       .  S
C2488      C2491   1.495       .  S
C2488      C2489   1.404       .  A
C2489      C2490   1.396       .  A
C2489      H2497   1.084       .  S
C2490      H2498   1.081       .  S
C2491      H2499   1.088       .  S
C2491      C2492   1.350       .  D
C2492      H2500   1.084       .  S
C2493      H2501   1.086       .  S
C2493      C2494   1.349       .  D
C2494      H2502   1.084       .  S
C2503      C2511   1.490       .  S
C2503      C2504   1.403       .  A
C2503      C2508   1.409       .  A
C2504      C2505   1.399       .  A
C2504      H2513   1.084       .  S
C2505      C2506   1.409       .  A
C2505      H2514   1.081       .  S
C2506      C2509   1.491       .  S
C2506      C2507   1.403       .  A
C2507      C2508   1.400       .  A
C2507      H2515   1.084       .  S
C2508      H2516   1.080       .  S
C2509      H2517   1.087       .  S
C2509      C2510   1.345       .  D
C2510      H2518   1.084       .  S
C2511      H2519   1.087       .  S
C2511      C2512   1.346       .  D
C2512      H2520   1.084       .  S
C2521      C2529   1.491       .  S
C2521      C2522   1.403       .  A
C2521      C2526   1.408       .  A
C2522      C2523   1.398       .  A
C2522      H2531   1.084       .  S
C2523      C2524   1.409       .  A
C2523      H2532   1.080       .  S
C2524      C2527   1.497       .  S
C2524      C2525   1.407       .  A
C2525      C2526   1.405       .  A
C2525      H2533   1.083       .  S
C2526      H2534   1.082       .  S
C2527      H2535   1.087       .  S
C2527      C2528   1.348       .  D
C2528      H2536   1.083       .  S
C2529      H2537   1.088       .  S
C2529      C2530   1.349       .  D
C2530      H2538   1.085       .  S
C2539      C2547   1.487       .  S
C2539      C2540   1.404       .  A
C2539      C2544   1.406       .  A
C2540      C2541   1.402       .  A
C2540      H2549   1.084       .  S
C2541      C2542   1.409       .  A
C2541      H2550   1.081       .  S
C2542      C2545   1.489       .  S
C2542      C2543   1.403       .  A
C2543      C2544   1.397       .  A
C2543      H2551   1.084       .  S
C2544      H2552   1.082       .  S
C2545      H2553   1.087       .  S
C2545      C2546   1.346       .  D
C2546      H2554   1.085       .  S
C2547      H2555   1.087       .  S
C2547      C2548   1.345       .  D
C2548      H2556   1.086       .  S
C2557      C2565   1.489       .  S
C2557      C2558   1.406   1_565  A
C2557      C2562   1.406       .  A
C2558      C2559   1.404       .  A
C2558      H2567   1.084   1_545  S
C2559      C2560   1.407       .  A
C2559      H2568   1.082       .  S
C2560      C2563   1.485       .  S
C2560      C2561   1.403       .  A
C2561      C2562   1.398   1_545  A
C2561      H2569   1.084       .  S
C2562      H2570   1.082       .  S
C2563      H2571   1.088       .  S
C2563      C2564   1.347       .  D
C2564      H2572   1.086       .  S
C2565      H2573   1.087       .  S
C2565      C2566   1.347       .  D
C2566      H2574   1.086       .  S
C2575      C2583   1.499       .  S
C2575      C2576   1.404       .  A
C2575      C2580   1.412       .  A
C2576      C2577   1.396       .  A
C2576      H2585   1.083       .  S
C2577      C2578   1.408       .  A
C2577      H2586   1.082       .  S
C2578      C2581   1.501       .  S
C2578      C2579   1.408       .  A
C2579      C2580   1.410       .  A
C2579      H2587   1.083       .  S
C2580      H2588   1.081       .  S
C2581      H2589   1.086       .  S
C2581      C2582   1.349       .  D
C2582      H2590   1.085       .  S
C2583      H2591   1.087       .  S
C2583      C2584   1.350       .  D
C2584      H2592   1.083       .  S
C2593      C2601   1.490       .  S
C2593      C2594   1.403       .  A
C2593      C2598   1.409       .  A
C2594      C2595   1.397   1_554  A
C2594      H2603   1.084       .  S
C2595      C2596   1.408       .  A
C2595      H2604   1.081       .  S
C2596      C2599   1.489       .  S
C2596      C2597   1.403       .  A
C2597      C2598   1.400   1_556  A
C2597      H2605   1.084       .  S
C2598      H2606   1.080       .  S
C2599      H2607   1.087       .  S
C2599      C2600   1.346       .  D
C2600      H2608   1.084       .  S
C2601      H2609   1.087       .  S
C2601      C2602   1.347       .  D
C2602      H2610   1.083       .  S
C2611      C2619   1.494       .  S
C2611      C2612   1.404       .  A
C2611      C2616   1.408       .  A
C2612      C2613   1.400       .  A
C2612      H2621   1.084       .  S
C2613      C2614   1.409       .  A
C2613      H2622   1.081       .  S
C2614      C2617   1.498       .  S
C2614      C2615   1.407       .  A
C2615      C2616   1.405       .  A
C2615      H2623   1.084       .  S
C2616      H2624   1.081       .  S
C2617      H2625   1.087       .  S
C2617      C2618   1.349       .  D
C2618      H2626   1.084       .  S
C2619      H2627   1.087       .  S
C2619      C2620   1.351       .  D
C2620      H2628   1.085       .  S
C2629      C2637   1.492       .  S
C2629      C2630   1.405       .  A
C2629      C2634   1.408       .  A
C2630      C2631   1.401   1_556  A
C2630      H2639   1.084       .  S
C2631      C2632   1.408       .  A
C2631      H2640   1.080       .  S
C2632      C2635   1.492       .  S
C2632      C2633   1.404       .  A
C2633      C2634   1.399   1_554  A
C2633      H2641   1.084       .  S
C2634      H2642   1.080       .  S
C2635      H2643   1.087       .  S
C2635      C2636   1.348       .  D
C2636      H2644   1.084       .  S
C2637      H2645   1.087       .  S
C2637      C2638   1.347       .  D
C2638      H2646   1.084       .  S
C2647      C2655   1.490       .  S
C2647      C2648   1.402       .  A
C2647      C2652   1.409       .  A
C2648      C2649   1.396   1_545  A
C2648      H2657   1.084       .  S
C2649      C2650   1.408       .  A
C2649      H2658   1.082       .  S
C2650      C2653   1.496       .  S
C2650      C2651   1.406       .  A
C2651      C2652   1.408   1_565  A
C2651      H2659   1.083       .  S
C2652      H2660   1.082       .  S
C2653      H2661   1.086       .  S
C2653      C2654   1.347       .  D
C2654      H2662   1.086       .  S
C2655      H2663   1.088       .  S
C2655      C2656   1.349       .  D
C2656      H2664   1.085       .  S
C2665      C2673   1.490       .  S
C2665      C2666   1.405       .  A
C2665      C2670   1.408       .  A
C2666      C2667   1.400       .  A
C2666      H2675   1.083       .  S
C2667      C2668   1.406       .  A
C2667      H2676   1.083       .  S
C2668      C2671   1.484       .  S
C2668      C2669   1.403       .  A
C2669      C2670   1.400       .  A
C2669      H2677   1.083       .  S
C2670      H2678   1.081       .  S
C2671      H2679   1.087       .  S
C2671      C2672   1.346       .  D
C2672      H2680   1.086       .  S
C2673      H2681   1.087       .  S
C2673      C2674   1.347       .  D
C2674      H2682   1.085       .  S
C2683      C2691   1.493       .  S
C2683      C2684   1.405       .  A
C2683      C2688   1.407       .  A
C2684      C2685   1.403       .  A
C2684      H2693   1.084       .  S
C2685      C2686   1.410       .  A
C2685      H2694   1.080       .  S
C2686      C2689   1.495       .  S
C2686      C2687   1.405       .  A
C2687      C2688   1.399       .  A
C2687      H2695   1.084       .  S
C2688      H2696   1.081       .  S
C2689      H2697   1.088       .  S
C2689      C2690   1.349       .  D
C2690      H2698   1.084       .  S
C2691      H2699   1.087       .  S
C2691      C2692   1.348       .  D
C2692      H2700   1.085       .  S
C2701      C2709   1.487       .  S
C2701      C2702   1.404       .  A
C2701      C2706   1.407       .  A
C2702      C2703   1.398       .  A
C2702      H2711   1.084       .  S
C2703      C2704   1.408       .  A
C2703      H2712   1.080       .  S
C2704      C2707   1.489       .  S
C2704      C2705   1.405       .  A
C2705      C2706   1.400       .  A
C2705      H2713   1.084       .  S
C2706      H2714   1.081       .  S
C2707      H2715   1.088       .  S
C2707      C2708   1.347       .  D
C2708      H2716   1.084       .  S
C2709      H2717   1.088       .  S
C2709      C2710   1.348       .  D
C2710      H2718   1.085       .  S
C2719      C2727   1.494       .  S
C2719      C2720   1.405       .  A
C2719      C2724   1.410       .  A
C2720      C2721   1.397       .  A
C2720      H2729   1.084       .  S
C2721      C2722   1.406       .  A
C2721      H2730   1.082       .  S
C2722      C2725   1.493       .  S
C2722      C2723   1.405       .  A
C2723      C2724   1.405       .  A
C2723      H2731   1.083       .  S
C2724      H2732   1.080       .  S
C2725      H2733   1.087       .  S
C2725      C2726   1.347       .  D
C2726      H2734   1.086       .  S
C2727      H2735   1.087       .  S
C2727      C2728   1.350       .  D
C2728      H2736   1.083       .  S
C2737      C2745   1.486       .  S
C2737      C2738   1.403       .  A
C2737      C2742   1.407       .  A
C2738      C2739   1.399       .  A
C2738      H2747   1.084       .  S
C2739      C2740   1.409   1_565  A
C2739      H2748   1.080   1_565  S
C2740      C2743   1.487       .  S
C2740      C2741   1.403   1_545  A
C2741      C2742   1.396       .  A
C2741      H2749   1.084   1_565  S
C2742      H2750   1.081       .  S
C2743      H2751   1.087       .  S
C2743      C2744   1.345       .  D
C2744      H2752   1.084       .  S
C2745      H2753   1.087       .  S
C2745      C2746   1.344       .  D
C2746      H2754   1.085       .  S
C2755      C2763   1.494       .  S
C2755      C2756   1.406       .  A
C2755      C2760   1.407       .  A
C2756      C2757   1.404       .  A
C2756      H2765   1.084       .  S
C2757      C2758   1.410       .  A
C2757      H2766   1.079       .  S
C2758      C2761   1.496       .  S
C2758      C2759   1.405       .  A
C2759      C2760   1.398       .  A
C2759      H2767   1.084       .  S
C2760      H2768   1.081       .  S
C2761      H2769   1.087       .  S
C2761      C2762   1.351       .  D
C2762      H2770   1.083       .  S
C2763      H2771   1.087       .  S
C2763      C2764   1.349       .  D
C2764      H2772   1.084       .  S
C2773      C2781   1.497       .  S
C2773      C2774   1.404       .  A
C2773      C2778   1.411       .  A
C2774      C2775   1.400       .  A
C2774      H2783   1.084       .  S
C2775      C2776   1.409       .  A
C2775      H2784   1.081       .  S
C2776      C2779   1.494       .  S
C2776      C2777   1.403       .  A
C2777      C2778   1.402       .  A
C2777      H2785   1.084       .  S
C2778      H2786   1.080       .  S
C2779      H2787   1.087       .  S
C2779      C2780   1.346       .  D
C2780      H2788   1.085       .  S
C2781      H2789   1.087       .  S
C2781      C2782   1.347       .  D
C2782      H2790   1.083       .  S
C2791      C2799   1.495       .  S
C2791      C2792   1.406       .  A
C2791      C2796   1.408       .  A
C2792      C2793   1.404       .  A
C2792      H2801   1.084       .  S
C2793      C2794   1.409       .  A
C2793      H2802   1.080       .  S
C2794      C2797   1.492       .  S
C2794      C2795   1.404       .  A
C2795      C2796   1.397       .  A
C2795      H2803   1.084       .  S
C2796      H2804   1.080       .  S
C2797      H2805   1.088       .  S
C2797      C2798   1.349       .  D
C2798      H2806   1.083       .  S
C2799      H2807   1.087       .  S
C2799      C2800   1.349       .  D
C2800      H2808   1.084       .  S
C2809      C2817   1.488       .  S
C2809      C2810   1.403       .  A
C2809      C2814   1.409       .  A
C2810      C2811   1.399       .  A
C2810      H2819   1.084       .  S
C2811      C2812   1.408       .  A
C2811      H2820   1.080       .  S
C2812      C2815   1.487       .  S
C2812      C2813   1.403       .  A
C2813      C2814   1.397       .  A
C2813      H2821   1.084       .  S
C2814      H2822   1.080       .  S
C2815      H2823   1.088       .  S
C2815      C2816   1.346       .  D
C2816      H2824   1.084       .  S
C2817      H2825   1.087       .  S
C2817      C2818   1.345       .  D
C2818      H2826   1.084       .  S
C2827      C2835   1.491       .  S
C2827      C2828   1.406       .  A
C2827      C2832   1.407       .  A
C2828      C2829   1.403       .  A
C2828      H2837   1.083       .  S
C2829      C2830   1.407       .  A
C2829      H2838   1.082       .  S
C2830      C2833   1.485       .  S
C2830      C2831   1.402       .  A
C2831      C2832   1.398       .  A
C2831      H2839   1.084       .  S
C2832      H2840   1.081       .  S
C2833      H2841   1.088       .  S
C2833      C2834   1.346       .  D
C2834      H2842   1.086       .  S
C2835      H2843   1.087       .  S
C2835      C2836   1.348       .  D
C2836      H2844   1.085       .  S
C2845      C2853   1.488       .  S
C2845      C2846   1.403       .  A
C2845      C2850   1.408       .  A
C2846      C2847   1.397       .  A
C2846      H2855   1.084       .  S
C2847      C2848   1.407       .  A
C2847      H2856   1.080       .  S
C2848      C2851   1.490       .  S
C2848      C2849   1.405       .  A
C2849      C2850   1.401       .  A
C2849      H2857   1.084       .  S
C2850      H2858   1.080       .  S
C2851      H2859   1.088       .  S
C2851      C2852   1.348       .  D
C2852      H2860   1.084       .  S
C2853      H2861   1.088       .  S
C2853      C2854   1.347       .  D
C2854      H2862   1.084       .  S
C2863      C2871   1.488       .  S
C2863      C2864   1.404       .  A
C2863      C2868   1.407       .  A
C2864      C2865   1.402       .  A
C2864      H2873   1.084       .  S
C2865      C2866   1.407       .  A
C2865      H2874   1.082       .  S
C2866      C2869   1.486       .  S
C2866      C2867   1.403       .  A
C2867      C2868   1.398       .  A
C2867      H2875   1.084       .  S
C2868      H2876   1.082       .  S
C2869      H2877   1.087       .  S
C2869      C2870   1.347       .  D
C2870      H2878   1.085       .  S
C2871      H2879   1.087       .  S
C2871      C2872   1.346       .  D
C2872      H2880   1.086       .  S
C2881      C2889   1.494       .  S
C2881      C2882   1.404       .  A
C2881      C2886   1.411       .  A
C2882      C2883   1.398       .  A
C2882      H2891   1.084       .  S
C2883      C2884   1.408       .  A
C2883      H2892   1.081       .  S
C2884      C2887   1.492       .  S
C2884      C2885   1.403       .  A
C2885      C2886   1.401       .  A
C2885      H2893   1.083       .  S
C2886      H2894   1.079       .  S
C2887      H2895   1.087       .  S
C2887      C2888   1.345       .  D
C2888      H2896   1.084       .  S
C2889      H2897   1.087       .  S
C2889      C2890   1.347       .  D
C2890      H2898   1.082       .  S
C2899      C2907   1.491       .  S
C2899      C2900   1.404       .  A
C2899      C2904   1.409       .  A
C2900      C2901   1.399       .  A
C2900      H2909   1.084       .  S
C2901      C2902   1.407       .  A
C2901      H2910   1.081       .  S
C2902      C2905   1.487       .  S
C2902      C2903   1.402       .  A
C2903      C2904   1.398       .  A
C2903      H2911   1.084       .  S
C2904      H2912   1.080       .  S
C2905      H2913   1.087       .  S
C2905      C2906   1.346       .  D
C2906      H2914   1.084       .  S
C2907      H2915   1.087       .  S
C2907      C2908   1.345       .  D
C2908      H2916   1.083       .  S
C2917      C2925   1.494       .  S
C2917      C2918   1.406       .  A
C2917      C2922   1.408       .  A
C2918      C2919   1.400       .  A
C2918      H2927   1.084       .  S
C2919      C2920   1.407       .  A
C2919      H2928   1.080       .  S
C2920      C2923   1.491       .  S
C2920      C2921   1.405       .  A
C2921      C2922   1.399       .  A
C2921      H2929   1.084       .  S
C2922      H2930   1.079       .  S
C2923      H2931   1.088       .  S
C2923      C2924   1.350       .  D
C2924      H2932   1.084       .  S
C2925      H2933   1.087       .  S
C2925      C2926   1.349       .  D
C2926      H2934   1.083       .  S
C2935      C2943   1.486       .  S
C2935      C2936   1.402       .  A
C2935      C2940   1.409       .  A
C2936      C2937   1.394       .  A
C2936      H2945   1.084       .  S
C2937      C2938   1.407       .  A
C2937      H2946   1.082       .  S
C2938      C2941   1.490       .  S
C2938      C2939   1.405       .  A
C2939      C2940   1.404       .  A
C2939      H2947   1.084       .  S
C2940      H2948   1.081       .  S
C2941      H2949   1.087       .  S
C2941      C2942   1.345       .  D
C2942      H2950   1.086       .  S
C2943      H2951   1.088       .  S
C2943      C2944   1.346       .  D
C2944      H2952   1.085       .  S
C2953      C2961   1.489       .  S
C2953      C2954   1.404       .  A
C2953      C2958   1.408       .  A
C2954      C2955   1.399       .  A
C2954      H2963   1.084       .  S
C2955      C2956   1.407       .  A
C2955      H2964   1.081       .  S
C2956      C2959   1.488       .  S
C2956      C2957   1.404       .  A
C2957      C2958   1.399       .  A
C2957      H2965   1.084       .  S
C2958      H2966   1.081       .  S
C2959      H2967   1.087       .  S
C2959      C2960   1.347       .  D
C2960      H2968   1.084       .  S
C2961      H2969   1.087       .  S
C2961      C2962   1.347       .  D
C2962      H2970   1.084       .  S
C2971      C2979   1.493       .  S
C2971      C2972   1.404       .  A
C2971      C2976   1.409       .  A
C2972      C2973   1.400       .  A
C2972      H2981   1.084       .  S
C2973      C2974   1.408       .  A
C2973      H2982   1.081       .  S
C2974      C2977   1.489       .  S
C2974      C2975   1.403       .  A
C2975      C2976   1.399       .  A
C2975      H2983   1.084       .  S
C2976      H2984   1.080       .  S
C2977      H2985   1.088       .  S
C2977      C2978   1.347       .  D
C2978      H2986   1.085       .  S
C2979      H2987   1.087       .  S
C2979      C2980   1.347       .  D
C2980      H2988   1.084       .  S
C2989      C2997   1.491       .  S
C2989      C2990   1.404       .  A
C2989      C2994   1.408       .  A
C2990      C2991   1.399       .  A
C2990      H2999   1.084       .  S
C2991      C2992   1.408       .  A
C2991      H3000   1.080       .  S
C2992      C2995   1.493       .  S
C2992      C2993   1.405       .  A
C2993      C2994   1.401       .  A
C2993      H3001   1.084       .  S
C2994      H3002   1.081       .  S
C2995      H3003   1.087       .  S
C2995      C2996   1.348       .  D
C2996      H3004   1.084       .  S
C2997      H3005   1.087       .  S
C2997      C2998   1.349       .  D
C2998      H3006   1.084       .  S
C3007      C3015   1.486       .  S
C3007      C3008   1.403       .  A
C3007      C3012   1.407       .  A
C3008      C3009   1.397       .  A
C3008      H3017   1.084       .  S
C3009      C3010   1.408       .  A
C3009      H3018   1.080       .  S
C3010      C3013   1.490       .  S
C3010      C3011   1.405       .  A
C3011      C3012   1.400       .  A
C3011      H3019   1.084       .  S
C3012      H3020   1.081       .  S
C3013      H3021   1.087       .  S
C3013      C3014   1.347       .  D
C3014      H3022   1.084       .  S
C3015      H3023   1.087       .  S
C3015      C3016   1.346       .  D
C3016      H3024   1.085       .  S
C3025      C3033   1.493       .  S
C3025      C3026   1.405       .  A
C3025      C3030   1.408       .  A
C3026      C3027   1.403       .  A
C3026      H3035   1.084       .  S
C3027      C3028   1.410       .  A
C3027      H3036   1.079       .  S
C3028      C3031   1.498       .  S
C3028      C3029   1.405       .  A
C3029      C3030   1.399       .  A
C3029      H3037   1.084       .  S
C3030      H3038   1.080       .  S
C3031      H3039   1.088       .  S
C3031      C3032   1.350       .  D
C3032      H3040   1.083       .  S
C3033      H3041   1.088       .  S
C3033      C3034   1.348       .  D
C3034      H3042   1.085       .  S
C3043      C3051   1.486       .  S
C3043      C3044   1.403       .  A
C3043      C3048   1.407       .  A
C3044      C3045   1.398       .  A
C3044      H3053   1.084       .  S
C3045      C3046   1.408       .  A
C3045      H3054   1.081       .  S
C3046      C3049   1.488       .  S
C3046      C3047   1.404       .  A
C3047      C3048   1.399       .  A
C3047      H3055   1.084       .  S
C3048      H3056   1.081       .  S
C3049      H3057   1.087       .  S
C3049      C3050   1.345       .  D
C3050      H3058   1.084       .  S
C3051      H3059   1.087       .  S
C3051      C3052   1.346       .  D
C3052      H3060   1.084       .  S
C3061      C3069   1.488       .  S
C3061      C3062   1.404       .  A
C3061      C3066   1.408       .  A
C3062      C3063   1.399       .  A
C3062      H3071   1.084       .  S
C3063      C3064   1.407       .  A
C3063      H3072   1.081       .  S
C3064      C3067   1.487       .  S
C3064      C3065   1.403       .  A
C3065      C3066   1.398       .  A
C3065      H3073   1.084       .  S
C3066      H3074   1.081       .  S
C3067      H3075   1.087       .  S
C3067      C3068   1.345       .  D
C3068      H3076   1.085       .  S
C3069      H3077   1.087       .  S
C3069      C3070   1.346       .  D
C3070      H3078   1.084       .  S
C3079      C3087   1.489       .  S
C3079      C3080   1.403       .  A
C3079      C3084   1.407       .  A
C3080      C3081   1.398       .  A
C3080      H3089   1.084       .  S
C3081      C3082   1.408       .  A
C3081      H3090   1.080       .  S
C3082      C3085   1.493       .  S
C3082      C3083   1.406       .  A
C3083      C3084   1.403       .  A
C3083      H3091   1.084       .  S
C3084      H3092   1.082       .  S
C3085      H3093   1.087       .  S
C3085      C3086   1.348       .  D
C3086      H3094   1.085       .  S
C3087      H3095   1.087       .  S
C3087      C3088   1.348       .  D
C3088      H3096   1.085       .  S
C3097      C3105   1.490       .  S
C3097      C3098   1.405       .  A
C3097      C3102   1.407       .  A
C3098      C3099   1.401       .  A
C3098      H3107   1.084       .  S
C3099      C3100   1.408       .  A
C3099      H3108   1.081       .  S
C3100      C3103   1.489       .  S
C3100      C3101   1.404       .  A
C3101      C3102   1.397       .  A
C3101      H3109   1.084       .  S
C3102      H3110   1.081       .  S
C3103      H3111   1.087       .  S
C3103      C3104   1.348       .  D
C3104      H3112   1.084       .  S
C3105      H3113   1.087       .  S
C3105      C3106   1.347       .  D
C3106      H3114   1.084       .  S
C3115      C3123   1.486       .  S
C3115      C3116   1.403       .  A
C3115      C3120   1.407       .  A
C3116      C3117   1.398       .  A
C3116      H3125   1.084       .  S
C3117      C3118   1.408       .  A
C3117      H3126   1.080       .  S
C3118      C3121   1.489       .  S
C3118      C3119   1.404       .  A
C3119      C3120   1.398       .  A
C3119      H3127   1.084       .  S
C3120      H3128   1.081       .  S
C3121      H3129   1.088       .  S
C3121      C3122   1.346       .  D
C3122      H3130   1.084       .  S
C3123      H3131   1.088       .  S
C3123      C3124   1.346       .  D
C3124      H3132   1.084       .  S
C3133      C3141   1.488       .  S
C3133      C3134   1.403       .  A
C3133      C3138   1.407       .  A
C3134      C3135   1.399       .  A
C3134      H3143   1.084       .  S
C3135      C3136   1.410       .  A
C3135      H3144   1.080       .  S
C3136      C3139   1.493       .  S
C3136      C3137   1.405       .  A
C3137      C3138   1.400       .  A
C3137      H3145   1.084       .  S
C3138      H3146   1.082       .  S
C3139      H3147   1.087       .  S
C3139      C3140   1.347       .  D
C3140      H3148   1.083       .  S
C3141      H3149   1.087       .  S
C3141      C3142   1.347       .  D
C3142      H3150   1.085       .  S
C3151      C3159   1.493       .  S
C3151      C3152   1.405       .  A
C3151      C3156   1.408       .  A
C3152      C3153   1.402       .  A
C3152      H3161   1.083       .  S
C3153      C3154   1.408       .  A
C3153      H3162   1.081       .  S
C3154      C3157   1.492       .  S
C3154      C3155   1.405       .  A
C3155      C3156   1.401       .  A
C3155      H3163   1.084       .  S
C3156      H3164   1.082       .  S
C3157      H3165   1.087       .  S
C3157      C3158   1.349       .  D
C3158      H3166   1.085       .  S
C3159      H3167   1.087       .  S
C3159      C3160   1.347       .  D
C3160      H3168   1.085       .  S
C3169      C3177   1.486       .  S
C3169      C3170   1.402       .  A
C3169      C3174   1.408       .  A
C3170      C3171   1.397       .  A
C3170      H3179   1.084       .  S
C3171      C3172   1.407       .  A
C3171      H3180   1.082       .  S
C3172      C3175   1.486       .  S
C3172      C3173   1.403       .  A
C3173      C3174   1.400       .  A
C3173      H3181   1.084       .  S
C3174      H3182   1.081       .  S
C3175      H3183   1.087       .  S
C3175      C3176   1.345       .  D
C3176      H3184   1.085       .  S
C3177      H3185   1.087       .  S
C3177      C3178   1.345       .  D
C3178      H3186   1.085       .  S
C3187      C3195   1.489       .  S
C3187      C3188   1.403       .  A
C3187      C3192   1.408       .  A
C3188      C3189   1.399       .  A
C3188      H3197   1.084       .  S
C3189      C3190   1.408       .  A
C3189      H3198   1.080       .  S
C3190      C3193   1.488       .  S
C3190      C3191   1.404       .  A
C3191      C3192   1.398       .  A
C3191      H3199   1.084       .  S
C3192      H3200   1.081       .  S
C3193      H3201   1.087       .  S
C3193      C3194   1.346       .  D
C3194      H3202   1.084       .  S
C3195      H3203   1.087       .  S
C3195      C3196   1.346       .  D
C3196      H3204   1.084       .  S
C3205      C3213   1.487       .  S
C3205      C3206   1.405       .  A
C3205      C3210   1.406       .  A
C3206      C3207   1.402       .  A
C3206      H3215   1.084       .  S
C3207      C3208   1.408       .  A
C3207      H3216   1.081       .  S
C3208      C3211   1.486       .  S
C3208      C3209   1.403       .  A
C3209      C3210   1.395       .  A
C3209      H3217   1.084       .  S
C3210      H3218   1.081       .  S
C3211      H3219   1.088       .  S
C3211      C3212   1.346       .  D
C3212      H3220   1.085       .  S
C3213      H3221   1.087       .  S
C3213      C3214   1.346       .  D
C3214      H3222   1.084       .  S
C3223      C3231   1.491       .  S
C3223      C3224   1.403       .  A
C3223      C3228   1.408       .  A
C3224      C3225   1.398       .  A
C3224      H3233   1.084       .  S
C3225      C3226   1.408       .  A
C3225      H3234   1.080       .  S
C3226      C3229   1.493       .  S
C3226      C3227   1.406       .  A
C3227      C3228   1.403       .  A
C3227      H3235   1.084       .  S
C3228      H3236   1.080       .  S
C3229      H3237   1.088       .  S
C3229      C3230   1.349       .  D
C3230      H3238   1.085       .  S
C3231      H3239   1.089       .  S
C3231      C3232   1.348       .  D
C3232      H3240   1.085       .  S
C3241      C3249   1.493       .  S
C3241      C3242   1.404       .  A
C3241      C3246   1.411       .  A
C3242      C3243   1.399       .  A
C3242      H3251   1.084       .  S
C3243      C3244   1.407       .  A
C3243      H3252   1.082       .  S
C3244      C3247   1.487       .  S
C3244      C3245   1.402       .  A
C3245      C3246   1.399       .  A
C3245      H3253   1.084       .  S
C3246      H3254   1.080       .  S
C3247      H3255   1.088       .  S
C3247      C3248   1.345       .  D
C3248      H3256   1.085       .  S
C3249      H3257   1.088       .  S
C3249      C3250   1.346       .  D
C3250      H3258   1.083       .  S
C3259      C3267   1.495       .  S
C3259      C3260   1.407       .  A
C3259      C3264   1.408       .  A
C3260      C3261   1.406       .  A
C3260      H3269   1.084       .  S
C3261      C3262   1.409       .  A
C3261      H3270   1.081       .  S
C3262      C3265   1.492       .  S
C3262      C3263   1.403       .  A
C3263      C3264   1.397       .  A
C3263      H3271   1.084       .  S
C3264      H3272   1.081       .  S
C3265      H3273   1.087       .  S
C3265      C3266   1.349       .  D
C3266      H3274   1.085       .  S
C3267      H3275   1.087       .  S
C3267      C3268   1.349       .  D
C3268      H3276   1.084       .  S
C3277      C3285   1.494       .  S
C3277      C3278   1.406       .  A
C3277      C3282   1.407       .  A
C3278      C3279   1.402       .  A
C3278      H3287   1.084       .  S
C3279      C3280   1.409       .  A
C3279      H3288   1.080       .  S
C3280      C3283   1.495       .  S
C3280      C3281   1.405       .  A
C3281      C3282   1.400       .  A
C3281      H3289   1.084       .  S
C3282      H3290   1.081       .  S
C3283      H3291   1.088       .  S
C3283      C3284   1.349       .  D
C3284      H3292   1.084       .  S
C3285      H3293   1.088       .  S
C3285      C3286   1.350       .  D
C3286      H3294   1.084       .  S
C3295      C3303   1.493       .  S
C3295      C3296   1.405       .  A
C3295      C3300   1.410       .  A
C3296      C3297   1.399       .  A
C3296      H3305   1.084       .  S
C3297      C3298   1.409       .  A
C3297      H3306   1.080       .  S
C3298      C3301   1.493       .  S
C3298      C3299   1.404       .  A
C3299      C3300   1.399       .  A
C3299      H3307   1.084       .  S
C3300      H3308   1.079       .  S
C3301      H3309   1.087       .  S
C3301      C3302   1.348       .  D
C3302      H3310   1.083       .  S
C3303      H3311   1.087       .  S
C3303      C3304   1.347       .  D
C3304      H3312   1.082       .  S
C3313      C3321   1.485       .  S
C3313      C3314   1.402       .  A
C3313      C3318   1.407       .  A
C3314      C3315   1.397       .  A
C3314      H3323   1.084       .  S
C3315      C3316   1.409       .  A
C3315      H3324   1.079       .  S
C3316      C3319   1.488       .  S
C3316      C3317   1.404       .  A
C3317      C3318   1.397       .  A
C3317      H3325   1.084       .  S
C3318      H3326   1.081       .  S
C3319      H3327   1.087       .  S
C3319      C3320   1.346       .  D
C3320      H3328   1.083       .  S
C3321      H3329   1.087       .  S
C3321      C3322   1.345       .  D
C3322      H3330   1.084       .  S
C3331      C3339   1.492       .  S
C3331      C3332   1.403       .  A
C3331      C3336   1.409       .  A
C3332      C3333   1.398       .  A
C3332      H3341   1.084       .  S
C3333      C3334   1.410       .  A
C3333      H3342   1.079       .  S
C3334      C3337   1.496       .  S
C3334      C3335   1.405       .  A
C3335      C3336   1.400       .  A
C3335      H3343   1.084       .  S
C3336      H3344   1.080       .  S
C3337      H3345   1.087       .  S
C3337      C3338   1.347       .  D
C3338      H3346   1.081       .  S
C3339      H3347   1.087       .  S
C3339      C3340   1.346       .  D
C3340      H3348   1.083       .  S
C3349      C3357   1.490       .  S
C3349      C3350   1.403       .  A
C3349      C3354   1.408       .  A
C3350      C3351   1.400       .  A
C3350      H3359   1.084       .  S
C3351      C3352   1.409       .  A
C3351      H3360   1.080       .  S
C3352      C3355   1.491       .  S
C3352      C3353   1.404       .  A
C3353      C3354   1.398       .  A
C3353      H3361   1.084       .  S
C3354      H3362   1.081       .  S
C3355      H3363   1.087       .  S
C3355      C3356   1.347       .  D
C3356      H3364   1.083       .  S
C3357      H3365   1.087       .  S
C3357      C3358   1.346       .  D
C3358      H3366   1.084       .  S
C3367      C3375   1.495       .  S
C3367      C3368   1.405       .  A
C3367      C3372   1.408       .  A
C3368      C3369   1.402       .  A
C3368      H3377   1.084       .  S
C3369      C3370   1.409       .  A
C3369      H3378   1.080       .  S
C3370      C3373   1.496       .  S
C3370      C3371   1.405       .  A
C3371      C3372   1.400       .  A
C3371      H3379   1.084       .  S
C3372      H3380   1.080       .  S
C3373      H3381   1.088       .  S
C3373      C3374   1.350       .  D
C3374      H3382   1.084       .  S
C3375      H3383   1.088       .  S
C3375      C3376   1.348       .  D
C3376      H3384   1.084       .  S
C3385      C3393   1.488       .  S
C3385      C3386   1.404       .  A
C3385      C3390   1.409       .  A
C3386      C3387   1.397       .  A
C3386      H3395   1.084       .  S
C3387      C3388   1.407       .  A
C3387      H3396   1.081       .  S
C3388      C3391   1.487       .  S
C3388      C3389   1.403       .  A
C3389      C3390   1.399       .  A
C3389      H3397   1.084       .  S
C3390      H3398   1.080       .  S
C3391      H3399   1.087       .  S
C3391      C3392   1.346       .  D
C3392      H3400   1.085       .  S
C3393      H3401   1.087       .  S
C3393      C3394   1.347       .  D
C3394      H3402   1.083       .  S
C3403      C3411   1.490       .  S
C3403      C3404   1.404       .  A
C3403      C3408   1.409       .  A
C3404      C3405   1.398       .  A
C3404      H3413   1.084       .  S
C3405      C3406   1.409       .  A
C3405      H3414   1.079       .  S
C3406      C3409   1.490       .  S
C3406      C3407   1.403       .  A
C3407      C3408   1.397       .  A
C3407      H3415   1.084       .  S
C3408      H3416   1.079       .  S
C3409      H3417   1.087       .  S
C3409      C3410   1.346       .  D
C3410      H3418   1.082       .  S
C3411      H3419   1.088       .  S
C3411      C3412   1.346       .  D
C3412      H3420   1.082       .  S
C3421      C3429   1.494       .  S
C3421      C3422   1.406       .  A
C3421      C3426   1.408       .  A
C3422      C3423   1.403       .  A
C3422      H3431   1.084       .  S
C3423      C3424   1.408       .  A
C3423      H3432   1.081       .  S
C3424      C3427   1.490       .  S
C3424      C3425   1.403       .  A
C3425      C3426   1.398       .  A
C3425      H3433   1.084       .  S
C3426      H3434   1.080       .  S
C3427      H3435   1.087       .  S
C3427      C3428   1.347       .  D
C3428      H3436   1.085       .  S
C3429      H3437   1.087       .  S
C3429      C3430   1.349       .  D
C3430      H3438   1.084       .  S
C3439      C3447   1.493       .  S
C3439      C3440   1.406       .  A
C3439      C3444   1.409       .  A
C3440      C3441   1.400       .  A
C3440      H3449   1.084       .  S
C3441      C3442   1.408       .  A
C3441      H3450   1.080       .  S
C3442      C3445   1.490       .  S
C3442      C3443   1.403       .  A
C3443      C3444   1.397       .  A
C3443      H3451   1.084       .  S
C3444      H3452   1.078       .  S
C3445      H3453   1.088       .  S
C3445      C3446   1.348       .  D
C3446      H3454   1.084       .  S
C3447      H3455   1.088       .  S
C3447      C3448   1.348       .  D
C3448      H3456   1.082       .  S
C3457      C3465   1.490       .  S
C3457      C3458   1.404       .  A
C3457      C3462   1.408       .  A
C3458      C3459   1.398       .  A
C3458      H3467   1.084       .  S
C3459      C3460   1.408       .  A
C3459      H3468   1.080       .  S
C3460      C3463   1.491       .  S
C3460      C3461   1.404       .  A
C3461      C3462   1.399       .  A
C3461      H3469   1.084       .  S
C3462      H3470   1.080       .  S
C3463      H3471   1.087       .  S
C3463      C3464   1.347       .  D
C3464      H3472   1.083       .  S
C3465      H3473   1.087       .  S
C3465      C3466   1.346       .  D
C3466      H3474   1.083       .  S
C3475      C3483   1.491       .  S
C3475      C3476   1.405       .  A
C3475      C3480   1.407       .  A
C3476      C3477   1.403       .  A
C3476      H3485   1.084       .  S
C3477      C3478   1.408       .  A
C3477      H3486   1.081       .  S
C3478      C3481   1.493       .  S
C3478      C3479   1.405       .  A
C3479      C3480   1.401       .  A
C3479      H3487   1.084       .  S
C3480      H3488   1.082       .  S
C3481      H3489   1.087       .  S
C3481      C3482   1.349       .  D
C3482      H3490   1.085       .  S
C3483      H3491   1.087       .  S
C3483      C3484   1.348       .  D
C3484      H3492   1.086       .  S
C3493      C3501   1.491       .  S
C3493      C3494   1.403       .  A
C3493      C3498   1.410       .  A
C3494      C3495   1.399       .  A
C3494      H3503   1.084       .  S
C3495      C3496   1.410       .  A
C3495      H3504   1.081       .  S
C3496      C3499   1.493       .  S
C3496      C3497   1.403       .  A
C3497      C3498   1.401       .  A
C3497      H3505   1.084       .  S
C3498      H3506   1.081       .  S
C3499      H3507   1.087       .  S
C3499      C3500   1.345       .  D
C3500      H3508   1.084       .  S
C3501      H3509   1.087       .  S
C3501      C3502   1.346       .  D
C3502      H3510   1.084       .  S
C3511      C3519   1.487       .  S
C3511      C3512   1.404       .  A
C3511      C3516   1.408       .  A
C3512      C3513   1.397       .  A
C3512      H3521   1.084       .  S
C3513      C3514   1.407       .  A
C3513      H3522   1.082       .  S
C3514      C3517   1.485       .  S
C3514      C3515   1.403       .  A
C3515      C3516   1.399       .  A
C3515      H3523   1.084       .  S
C3516      H3524   1.080       .  S
C3517      H3525   1.087       .  S
C3517      C3518   1.345       .  D
C3518      H3526   1.085       .  S
C3519      H3527   1.087       .  S
C3519      C3520   1.346       .  D
C3520      H3528   1.084       .  S
