geometry optimzed in LAMMPS
_audit_creation_date              2020-11-30 
_audit_creation_method            'lammps2cif' 
_symmetry_space_group_name_H-M    'P1' 
_symmetry_Int_Tables_number       1 
_symmetry_cell_setting            triclinic 
loop_ 
_symmetry_equiv_pos_as_xyz 
  x,y,z 
_cell_length_a                    48.21863291 
_cell_length_b                    31.17932837638442 
_cell_length_c                    35.62238809968157 
_cell_angle_alpha                 90.11185665748735 
_cell_angle_beta                  81.50601176807932 
_cell_angle_gamma                 79.23634853583842 
loop_ 
_atom_site_label 
_atom_site_type_symbol 
_atom_site_fract_x 
_atom_site_fract_y 
_atom_site_fract_z 
_atom_site_charge 
C1          C  0.03032629  0.99578838  0.27136873     0.30000
C2          C  0.47758626  0.99247535  0.26344822     0.30000
C3          C  0.00826219  0.99019532  0.30606896    -0.06200
C4          C  0.01520895  0.03414172  0.25022924    -0.07000
C5          C  0.02945469  0.95547373  0.24576460    -0.06900
C6          C  0.48086042  0.99123328  0.30602073    -0.06200
C7          C  0.48795526  0.03506884  0.25137655    -0.07000
C8          C  0.50210532  0.95714149  0.24436460    -0.06900
C9          C  0.46394369  0.99234409  0.34141053    -0.32300
N10         N  0.48101335  0.98965345  0.36898945     0.14200
C11         C  0.00786838  0.98878977  0.34484109    -0.32300
H12         H  0.02597655  0.98857306  0.35957537     0.16200
C13         C  0.47813370  0.07395298  0.23459657    -0.31200
N14         N  0.49912909  0.09796894  0.22969090     0.13000
C15         C  0.02148137  0.07294368  0.23584827    -0.31200
C16         C  0.50289113  0.91949154  0.22394875    -0.31500
N17         N  0.03029139  0.89299624  0.21327463     0.13500
H18         H  0.48486413  0.90877647  0.21457481     0.16100
C19         C  0.04648526  0.91585150  0.23090318    -0.31500
H20         H  0.06822093  0.90283166  0.23484121     0.16100
H21         H  0.04143051  0.08422303  0.23544046     0.16100
H22         H  0.44093052  0.99601636  0.34664593     0.16200
H23         H  0.45734424  0.08429382  0.22609663     0.16100
C24         C  0.28131134  0.99165020  0.26923560     0.30000
C25         C  0.22480531  0.00660118  0.29699443     0.30000
C26         C  0.27365466  0.99526718  0.31280988    -0.06200
C27         C  0.26367578  0.03319422  0.25537775    -0.07000
C28         C  0.26483430  0.95681563  0.25760204    -0.06900
C29         C  0.24488769  0.00348837  0.32652884    -0.06200
C30         C  0.23470626  0.04176457  0.26953388    -0.07000
C31         C  0.23591352  0.96456266  0.27203142    -0.06900
C32         C  0.24178052  0.00478099  0.36558331    -0.32300
N33         N  0.26807308  0.99717268  0.37618213     0.14200
C34         C  0.28786901  0.99157364  0.34420464    -0.32300
H35         H  0.31075523  0.98482631  0.34382695     0.16200
C36         C  0.22302244  0.07816155  0.25025594    -0.31200
N37         N  0.24415537  0.09146158  0.22607806     0.13000
C38         C  0.26891374  0.06360663  0.22843485    -0.31200
C39         C  0.22372144  0.93457029  0.25455222    -0.31500
N40         N  0.24439174  0.90862896  0.23015747     0.13500
H41         H  0.20138855  0.93250731  0.25846089     0.16100
C42         C  0.26904244  0.92348636  0.23028761    -0.31500
H43         H  0.28808096  0.91174630  0.21024957     0.16100
H44         H  0.28929197  0.06549493  0.21174904     0.16100
H45         H  0.22184882  0.01013140  0.38496409     0.16200
H46         H  0.20077472  0.09316714  0.25197511     0.16100
C47         C  0.49077185  0.00324957  0.73960469     0.30000
C48         C  0.43328945  0.01454249  0.75932258     0.30000
C49         C  0.47358088  0.00597908  0.70600970    -0.06200
C50         C  0.48009534  0.96737230  0.76395740    -0.07000
C51         C  0.47620823  0.04607748  0.76213694    -0.06900
C52         C  0.44402152  0.01041591  0.71594792    -0.06200
C53         C  0.45080450  0.97237307  0.77305589    -0.07000
C54         C  0.44721652  0.05056850  0.77286665    -0.06900
C55         C  0.43296522  0.00883243  0.68221192    -0.32300
N56         N  0.45468920  0.00593803  0.65267156     0.14200
C57         C  0.47930089  0.00550091  0.66687148    -0.32300
H58         H  0.00091618  0.00089154  0.64271420     0.16200
C59         C  0.44545352  0.93671355  0.79399077    -0.31200
N60         N  0.47056927  0.91250988  0.80054589     0.13000
C61         C  0.49206574  0.93028681  0.78153583    -0.31200
C62         C  0.43753163  0.08945037  0.79314467    -0.31500
N63         N  0.45979715  0.11010011  0.79381764     0.13500
H64         H  0.41583065  0.10172332  0.80653150     0.16100
C65         C  0.48354304  0.08406303  0.77478001    -0.31500
H66         H  0.00664121  0.09113953  0.76252503     0.16100
H67         H  0.01732171  0.91623164  0.77442034     0.16100
H68         H  0.41092947  0.00910677  0.67924873     0.16200
H69         H  0.42480047  0.92920378  0.80489027     0.16100
C70         C  0.24047723  0.01268868  0.76479957     0.30000
C71         C  0.18896127  0.01372332  0.74297249     0.30000
C72         C  0.24099188  0.00796627  0.72147174    -0.06200
C73         C  0.22434886  0.97788003  0.78201215    -0.07000
C74         C  0.21836538  0.05565865  0.77425164    -0.06900
C75         C  0.21459302  0.00755635  0.71105667    -0.06200
C76         C  0.19803267  0.97804905  0.77154012    -0.07000
C77         C  0.19137427  0.05601176  0.76459495    -0.06900
C78         C  0.21750219  0.00748216  0.67204048    -0.32300
N79         N  0.24497384  0.00860740  0.65778718     0.14200
C80         C  0.25954708  0.00990841  0.68775338    -0.32300
H81         H  0.28161906  0.01354344  0.68527457     0.16200
C82         C  0.18725881  0.94468391  0.79144315    -0.31200
N83         N  0.20677990  0.92440536  0.81291309     0.13000
C84         C  0.22960529  0.94454577  0.80692766    -0.31200
C85         C  0.17415768  0.09481733  0.78043954    -0.31500
N86         N  0.19064632  0.11850183  0.79658527     0.13500
H87         H  0.15129408  0.10429106  0.78150430     0.16100
C88         C  0.21764499  0.09540788  0.79181899    -0.31500
H89         H  0.23521991  0.10671386  0.80183133     0.16100
H90         H  0.24900513  0.93510578  0.81919331     0.16100
H91         H  0.20048101  0.00849311  0.65515936     0.16200
H92         H  0.16670703  0.93583173  0.79052742     0.16100
Zr93       Zr  0.44253439  0.44964503  0.03186464     2.17500
O94         O  0.41242652  0.42601789  0.08594005    -0.51300
O95         O  0.44202371  0.39195921  0.98473705    -0.74600
O96         O  0.38837611  0.47214120  0.02589427    -0.81300
O97         O  0.01135685  0.38521002  0.06292202    -0.83100
O98         O  0.38210743  0.54108459  0.00419172    -0.78700
O99         O  0.46425834  0.38539067  0.06417695    -0.90300
O100        O  0.47278814  0.40334081  0.93261810    -0.76300
O101        O  0.44436797  0.48701221  0.97377392    -0.85800
O102        O  0.49162752  0.42971077  0.00012892    -0.85500
O103        O  0.43226078  0.52541673  0.05236444    -0.72200
O104        O  0.47754901  0.47064686  0.06836906    -0.84400
Zr105      Zr  0.01683470  0.56194291  0.99516553     2.26400
Zr106      Zr  0.43263346  0.56235242  0.99366614     2.06300
Zr107      Zr  0.02696819  0.44886014  0.03220665     2.10000
Zr108      Zr  0.49275524  0.46722485  0.94243778     1.78800
O109        O  0.04605124  0.43626950  0.09167289    -0.93200
O110        O  0.46939083  0.48589916  0.88691728    -0.41000
O111        O  0.02834022  0.48685853  0.97411050    -0.77600
O112        O  0.48179252  0.54274017  0.96083668    -0.96300
O113        O  0.46793302  0.58236435  0.02955635    -0.89600
O114        O  0.01456942  0.52359402  0.05261963    -0.92500
C115        C  0.45537321  0.38162319  0.95089369     1.01300
C116        C  0.48899392  0.36816150  0.07266115     1.14200
C117        C  0.37115471  0.50673237  0.01568573     1.05000
O118        O  0.41564709  0.57039384  0.93254970    -0.94600
O119        O  0.44800234  0.62851600  0.96613341    -0.90400
O120        O  0.49501897  0.62898377  0.96985816    -0.83500
C121        C  0.47070085  0.64568192  0.95999075     1.11600
O122        O  0.44015587  0.52122718  0.14384357    -0.96600
Zr123      Zr  0.46730995  0.54625287  0.08774622     1.88900
O124        O  0.02031770  0.61508539  0.04380350    -0.73200
O125        O  0.39844430  0.62324907  0.02621843    -0.52500
O126        O  0.42712680  0.60347600  0.11291192    -0.97200
O127        O  0.49259585  0.52974398  0.14193538    -0.54400
O128        O  0.48720839  0.61236156  0.09503911    -0.73700
C129        C  0.50690583  0.63066858  0.07708439     0.98600
O130        O  0.04769055  0.58384402  0.94084560    -0.62600
O131        O  0.06009739  0.38989715  0.99526659    -0.57400
O132        O  0.07060967  0.53950569  0.00252600    -0.94100
O133        O  0.07665867  0.47079788  0.02486414    -0.92500
O134        O  0.03466550  0.41249456  0.91126969    -0.92800
O135        O  0.02055940  0.49654865  0.88317942    -0.91600
C136        C  0.08750166  0.50512552  0.01365298     1.17400
H137        H  0.49644104  0.39862345  0.99471693     0.33400
H138        H  0.48313545  0.55834213  0.93741228     0.44200
H139        H  0.02796909  0.53079224  0.06810364     0.37800
H140        H  0.41350430  0.53244028  0.06731214     0.34200
H141        H  0.45285557  0.47090016  0.89010020     0.26000
H142        H  0.41031414  0.64232175  0.03575092     0.32000
H143        H  0.43166749  0.61257541  0.13760159     0.37900
H144        H  0.05155808  0.42433314  0.91597520     0.32300
H145        H  0.07146793  0.37445342  0.01384070     0.31200
H146        H  0.05711901  0.40600373  0.08903442     0.32900
H147        H  0.50796403  0.54710597  0.13871243     0.31900
H148        H  0.03475199  0.51005460  0.89402187     0.35900
H149        H  0.06247170  0.55750735  0.93316996     0.28600
H150        H  0.39920763  0.41060573  0.07487759     0.32800
H151        H  0.43783258  0.49159520  0.13651927     0.35700
H152        H  0.04821316  0.36918217  0.98864436     0.28300
H153        H  0.03613078  0.58712542  0.91988005     0.41200
H154        H  0.40726240  0.54418987  0.92937074     0.31200
H155        H  0.46082222  0.51730250  0.89068735     0.38800
H156        H  0.50269517  0.49910084  0.13723825     0.30700
H157        H  0.39001574  0.63978579  0.00561617     0.30700
H158        H  0.40028269  0.45325992  0.09771266     0.31000
Zr159      Zr  0.19250630  0.44651587  0.02965679     2.17500
O160        O  0.16211107  0.41885147  0.08116575    -0.51300
O161        O  0.19113936  0.39295439  0.97958234    -0.74600
O162        O  0.13847417  0.47008868  0.02352606    -0.81300
O163        O  0.26205742  0.38340881  0.06629795    -0.83100
O164        O  0.13202151  0.53964311  0.00313341    -0.78700
O165        O  0.21508978  0.38307480  0.06254491    -0.90300
O166        O  0.22207217  0.40588624  0.92817542    -0.76300
O167        O  0.19428756  0.48692309  0.97332309    -0.85800
O168        O  0.24186788  0.42892765  0.99838986    -0.85500
O169        O  0.18075484  0.52105352  0.05262763    -0.72200
O170        O  0.22721244  0.46551386  0.06739581    -0.84400
Zr171      Zr  0.26492427  0.56409909  0.00191475     2.26400
Zr172      Zr  0.18174948  0.56134650  0.99558168     2.06300
Zr173      Zr  0.27654458  0.44857034  0.03577069     2.10000
Zr174      Zr  0.24265343  0.46900207  0.94209563     1.78800
O175        O  0.29612221  0.43438939  0.09474758    -0.93200
O176        O  0.21970646  0.49112026  0.88683905    -0.41000
O177        O  0.27672675  0.48933570  0.97905763    -0.77600
O178        O  0.23100733  0.54392956  0.96300541    -0.96300
O179        O  0.21585935  0.57982019  0.03387138    -0.89600
O180        O  0.26346411  0.52305155  0.05824898    -0.92500
C181        C  0.20415013  0.38399182  0.94539979     1.01300
C182        C  0.23938925  0.36620543  0.07260366     1.14200
C183        C  0.12136871  0.50490942  0.01347045     1.05000
O184        O  0.16397471  0.57252801  0.93519038    -0.94600
O185        O  0.19502698  0.62835752  0.96837299    -0.90400
O186        O  0.24209634  0.62954933  0.97081785    -0.83500
C187        C  0.21732296  0.64621823  0.96189690     1.11600
O188        O  0.18961049  0.50640780  0.14323722    -0.96600
Zr189      Zr  0.21502276  0.53938995  0.09010702     1.88900
O190        O  0.26128220  0.62139155  0.05087537    -0.73200
O191        O  0.14878133  0.62118334  0.03166512    -0.52500
O192        O  0.17227932  0.58900411  0.12007947    -0.97200
O193        O  0.24111686  0.52344515  0.14364687    -0.54400
O194        O  0.22743077  0.60995901  0.09955926    -0.73700
C195        C  0.24464207  0.63287106  0.08245605     0.98600
O196        O  0.29608642  0.59137552  0.95072822    -0.62600
O197        O  0.30762597  0.38908902  0.99704108    -0.57400
O198        O  0.31920255  0.54188833  0.00855153    -0.94100
O199        O  0.32641091  0.47152740  0.02694922    -0.92500
O200        O  0.28389518  0.41198672  0.92062895    -0.92800
O201        O  0.27223410  0.49225542  0.88736271    -0.91600
C202        C  0.33685076  0.50678883  0.01717109     1.17400
H203        H  0.24699591  0.39807424  0.99194236     0.33400
H204        H  0.23227781  0.56012679  0.93994404     0.44200
H205        H  0.27675204  0.53040480  0.07387062     0.37800
H206        H  0.16184536  0.52694729  0.06727926     0.34200
H207        H  0.22229924  0.46402001  0.87113869     0.26000
H208        H  0.13332704  0.62958358  0.01610764     0.32000
H209        H  0.17696645  0.59768342  0.14480770     0.37900
H210        H  0.28180766  0.40432906  0.89434415     0.32300
H211        H  0.32161977  0.40318157  0.98077785     0.31200
H212        H  0.30156052  0.46211414  0.10168894     0.32900
H213        H  0.25688400  0.53998079  0.13944013     0.31900
H214        H  0.28713962  0.50402332  0.89821286     0.35900
H215        H  0.31321950  0.56809119  0.94463880     0.28600
H216        H  0.15009359  0.40262644  0.06853071     0.32800
H217        H  0.18135099  0.48397314  0.13133853     0.35700
H218        H  0.31879500  0.37208580  0.01506354     0.28300
H219        H  0.28637861  0.59104186  0.92812483     0.41200
H220        H  0.14570485  0.59355831  0.94130091     0.31200
H221        H  0.19901928  0.49781374  0.89665522     0.38800
H222        H  0.25058204  0.49241282  0.13958685     0.30700
H223        H  0.13977509  0.60743667  0.05410806     0.30700
H224        H  0.14879455  0.44501381  0.09310778     0.31000
C225        C  0.21434956  0.84344695  0.89160374    -0.11400
C226        C  0.20671741  0.80679883  0.87588709     0.15100
C227        C  0.19732963  0.81038889  0.83996968     0.02000
C228        C  0.19666411  0.84972162  0.82037730    -0.15800
C229        C  0.20497058  0.88614239  0.83570466    -0.10600
C230        C  0.21333254  0.88286274  0.87229595     0.08800
C231        C  0.20955165  0.76534872  0.89741141     0.09800
S232        S  0.18699378  0.76562605  0.81678629    -0.24900
H233        H  0.19033171  0.85157870  0.79240025     0.20100
S234        S  0.22222609  0.92809926  0.89651181    -0.30600
H235        H  0.22121694  0.84129837  0.91928202     0.10400
C236        C  0.23452009  0.73284929  0.89091663     0.03600
C237        C  0.23679347  0.69504339  0.91289120    -0.12900
C238        C  0.21447029  0.68849417  0.94133444    -0.08600
C239        C  0.18952635  0.72159750  0.94787551     0.07000
C240        C  0.18739314  0.75926806  0.92598307    -0.13600
S241        S  0.26345995  0.73954766  0.85436401    -0.30600
H242        H  0.25583919  0.66996222  0.90729315     0.11300
S243        S  0.15996584  0.71882492  0.98461235    -0.27700
H244        H  0.16831446  0.78436543  0.93150944     0.08500
H245        H  0.20325281  0.96043972  0.88074210     0.26900
H246        H  0.28244647  0.70146310  0.86154853     0.21700
H247        H  0.17702731  0.69872100  0.01070402     0.27100
H248        H  0.17915717  0.74321518  0.84962293     0.15900
C249        C  0.21334963  0.28399811  0.87867791    -0.11400
C250        C  0.18541287  0.27610276  0.88181869     0.15100
C251        C  0.16358364  0.30336385  0.90678026     0.02000
C252        C  0.17025667  0.33769346  0.92754548    -0.15800
C253        C  0.19829285  0.34581279  0.92420071    -0.10600
C254        C  0.22008176  0.31770530  0.89975266     0.08800
C255        C  0.18084810  0.23701249  0.86079815     0.09800
S256        S  0.12686143  0.29629864  0.91390104    -0.24900
H257        H  0.15327487  0.35863153  0.94615057     0.20100
S258        S  0.25731773  0.32096586  0.89585130    -0.30600
H259        H  0.23034879  0.26266372  0.86039805     0.10400
C260        C  0.17725361  0.23816571  0.82211244     0.03600
C261        C  0.17778945  0.19889025  0.80184392    -0.12900
C262        C  0.18190760  0.15840108  0.81951645    -0.08600
C263        C  0.18376531  0.15787612  0.85876794     0.07000
C264        C  0.18335324  0.19683615  0.87883456    -0.13600
S265        S  0.17340776  0.28947345  0.79825357    -0.30600
H266        H  0.17684350  0.19927813  0.77167886     0.11300
S267        S  0.18875534  0.10769640  0.88407937    -0.27700
H268        H  0.18613757  0.19559508  0.90847303     0.08500
H269        H  0.25623969  0.33156482  0.93452388     0.26900
H270        H  0.17057638  0.27252809  0.76268507     0.21700
H271        H  0.17580416  0.08413993  0.86022667     0.27100
H272        H  0.12838979  0.26767996  0.88290926     0.15900
C273        C  0.45945812  0.84391645  0.88641470    -0.11400
C274        C  0.47393499  0.80251872  0.87221208     0.15100
C275        C  0.48884574  0.79836296  0.83465878     0.02000
C276        C  0.48828372  0.83521094  0.81195569    -0.15800
C277        C  0.47323221  0.87640234  0.82585801    -0.10600
C278        C  0.45918787  0.88079331  0.86390531     0.08800
C279        C  0.47202576  0.76404268  0.89650396     0.09800
S280        S  0.00949720  0.74384733  0.80777557    -0.24900
H281        H  0.00053391  0.82842387  0.77639438     0.20100
S282        S  0.44085710  0.93266361  0.88552900    -0.30600
H283        H  0.44816622  0.84746606  0.91523789     0.10400
C284        C  0.48833907  0.75480742  0.92623533     0.03600
C285        C  0.48683480  0.71682487  0.94718051    -0.12900
C286        C  0.46950416  0.68730883  0.93889573    -0.08600
C287        C  0.45320934  0.69703077  0.90888314     0.07000
C288        C  0.45429764  0.73537777  0.88864685    -0.13600
S289        S  0.51185015  0.79062455  0.93656610    -0.30600
H290        H  0.49947206  0.70986998  0.96993173     0.11300
S291        S  0.43243993  0.66038968  0.89262573    -0.27700
H292        H  0.44199076  0.74215761  0.86550505     0.08500
H293        H  0.45864933  0.95765565  0.86423681     0.26900
H294        H  0.52590392  0.76314110  0.96195714     0.21700
H295        H  0.45394085  0.62305889  0.89288017     0.27100
H296        H  0.01583283  0.72436453  0.84181162     0.15900
C297        C  0.45216491  0.26387358  0.92417941    -0.11400
C298        C  0.45315957  0.26646549  0.88453435     0.15100
C299        C  0.45213633  0.30790693  0.86810124     0.02000
C300        C  0.45060374  0.34491549  0.89115192    -0.15800
C301        C  0.45139403  0.34205838  0.93039355    -0.10600
C302        C  0.45220926  0.30072848  0.94700454     0.08800
C303        C  0.45534795  0.22577007  0.86104623     0.09800
S304        S  0.45450090  0.31585019  0.81764277    -0.24900
H305        H  0.45024150  0.37622946  0.87786356     0.20100
S306        S  0.45565265  0.29205987  0.99625146    -0.30600
H307        H  0.45256979  0.23246275  0.93726530     0.10400
C308        C  0.47824261  0.18992113  0.86077634     0.03600
C309        C  0.47944955  0.15257551  0.83797547    -0.12900
C310        C  0.45878623  0.15038325  0.81448229    -0.08600
C311        C  0.43666358  0.18703283  0.81344047     0.07000
C312        C  0.43465434  0.22344223  0.83752537    -0.13600
S313        S  0.01235217  0.18729884  0.87983808    -0.30600
H314        H  0.00011984  0.12119285  0.83062965     0.11300
S315        S  0.41145462  0.19055769  0.78038058    -0.27700
H316        H  0.41720667  0.25085712  0.83708781     0.08500
H317        H  0.47581440  0.31916976  0.99734915     0.26900
H318        H  0.02706961  0.14450913  0.86986265     0.21700
H319        H  0.43040324  0.16465723  0.75164553     0.27100
H320        H  0.47350665  0.27634095  0.80687740     0.15900
C321        C  0.35243861  0.05471599  0.77403508    -0.11400
C322        C  0.34513821  0.02915410  0.80489026     0.15100
C323        C  0.36590497  0.00878662  0.82579449     0.02000
C324        C  0.39403340  0.01011874  0.81219086    -0.15800
C325        C  0.40196981  0.02417445  0.77517293    -0.10600
C326        C  0.38088709  0.05299873  0.75891359     0.08800
C327        C  0.31867063  0.01406812  0.80555886     0.09800
S328        S  0.35871170  0.97622988  0.86670992    -0.24900
H329        H  0.40979259  0.99788076  0.83007143     0.20100
S330        S  0.38751264  0.08928506  0.72052222    -0.30600
H331        H  0.33586349  0.07260457  0.75944937     0.10400
C332        C  0.29332745  0.03649446  0.82628513     0.03600
C333        C  0.26790799  0.03097616  0.81492649    -0.12900
C334        C  0.26806758  0.00872488  0.78033169    -0.08600
C335        C  0.29311797  0.97856715  0.76541880     0.07000
C336        C  0.31841683  0.98239151  0.77789961    -0.13600
S337        S  0.29352365  0.07372290  0.86510066    -0.30600
H338        H  0.24808883  0.04529595  0.83237300     0.11300
S339        S  0.29532081  0.93437157  0.73151117    -0.27700
H340        H  0.33835497  0.96303867  0.76391923     0.08500
H341        H  0.41495381  0.09382022  0.72604812     0.26900
H342        H  0.26371774  0.08439749  0.87574139     0.21700
H343        H  0.26718346  0.92783341  0.73996743     0.27100
H344        H  0.32884965  0.98772400  0.87232832     0.15900
C345        C  0.07061027  0.96988463  0.68662755    -0.11400
C346        C  0.08303093  0.99249562  0.71148326     0.15100
C347        C  0.06729788  0.00971747  0.74638744     0.02000
C348        C  0.03850390  0.00961107  0.75302483    -0.15800
C349        C  0.02472716  0.99432907  0.72513517    -0.10600
C350        C  0.04171495  0.96767774  0.69493110     0.08800
C351        C  0.11285485  0.99541448  0.70304573     0.09800
S352        S  0.08246128  0.03262129  0.78351107    -0.24900
H353        H  0.02685745  0.02144928  0.78052370     0.20100
S354        S  0.02886539  0.92500070  0.67223600    -0.30600
H355        H  0.08374713  0.95273943  0.66185060     0.10400
C356        C  0.13372491  0.95929039  0.70845624     0.03600
C357        C  0.15907189  0.96695088  0.71844197    -0.12900
C358        C  0.16274365  0.00978602  0.72604217    -0.08600
C359        C  0.14485852  0.04476616  0.71083468     0.07000
C360        C  0.11946149  0.03720130  0.70051985    -0.13600
S361        S  0.12684236  0.90426343  0.70781299    -0.30600
H362        H  0.17548281  0.93923677  0.72217620     0.11300
S363        S  0.15274401  0.09841686  0.70151389    -0.27700
H364        H  0.10376173  0.06448562  0.69348616     0.08500
H365        H  0.54999383  0.91703078  0.64839228     0.26900
H366        H  0.15400423  0.88282020  0.71432760     0.21700
H367        H  0.18253185  0.08577174  0.69503026     0.27100
H368        H  0.10808396  0.00178205  0.77870289     0.15900
C369        C  0.22870700  0.80035824  0.20051413    -0.11400
C370        C  0.24180747  0.79631001  0.16244037     0.15100
C371        C  0.25364208  0.83140690  0.14617918     0.02000
C372        C  0.25376786  0.86820821  0.16880876    -0.15800
C373        C  0.24154534  0.87175469  0.20731270    -0.10600
C374        C  0.22868968  0.83728227  0.22312031     0.08800
C375        C  0.24329234  0.75478023  0.14082783     0.09800
S376        S  0.26879255  0.83128563  0.09674123    -0.24900
H377        H  0.26339676  0.89455027  0.15623838     0.20100
S378        S  0.21384002  0.83681810  0.27250201    -0.30600
H379        H  0.21941027  0.77371030  0.21314898     0.10400
C380        C  0.26937934  0.72554426  0.12935030     0.03600
C381        C  0.26958479  0.68665162  0.10903690    -0.12900
C382        C  0.24416688  0.67610851  0.10028681    -0.08600
C383        C  0.21815125  0.70596002  0.11125496     0.07000
C384        C  0.21798912  0.74444463  0.13169841    -0.13600
S385        S  0.30224151  0.73639521  0.14237938    -0.30600
H386        H  0.28942848  0.66362127  0.10122000     0.11300
S387        S  0.18441339  0.69758351  0.09926762    -0.27700
H388        H  0.19796423  0.76695043  0.14009520     0.08500
H389        H  0.23567540  0.85419365  0.28564223     0.26900
H390        H  0.32057794  0.70567459  0.11665673     0.21700
H391        H  0.19585544  0.67252959  0.06585378     0.27100
H392        H  0.25125873  0.80514988  0.08345813     0.15900
C393        C  0.24959604  0.16680163  0.14370526    -0.11400
C394        C  0.24231109  0.20815620  0.16224605     0.15100
C395        C  0.23366714  0.21022258  0.20215031     0.02000
C396        C  0.23377277  0.17147274  0.22235167    -0.15800
C397        C  0.24159613  0.13029770  0.20379373    -0.10600
C398        C  0.24907546  0.12817560  0.16388960     0.08800
C399        C  0.24281383  0.24811860  0.13884447     0.09800
S400        S  0.22192904  0.26107725  0.22905081    -0.24900
H401        H  0.22796967  0.17333129  0.25295526     0.20100
S402        S  0.25755363  0.07708411  0.13717540    -0.30600
H403        H  0.25562663  0.16460148  0.11312965     0.10400
C404        C  0.26179255  0.27695891  0.14213229     0.03600
C405        C  0.26044412  0.31482269  0.12018569    -0.12900
C406        C  0.24111216  0.32418249  0.09383468    -0.08600
C407        C  0.22361532  0.29329049  0.08875423     0.07000
C408        C  0.22434139  0.25642836  0.11166093    -0.13600
S409        S  0.28850467  0.26470965  0.17316125    -0.30600
H410        H  0.27443438  0.33742725  0.12379996     0.11300
S411        S  0.20133899  0.29864268  0.05173932    -0.27700
H412        H  0.21040802  0.23362824  0.10835189     0.08500
H413        H  0.24105174  0.05454317  0.16317499     0.26900
H414        H  0.30185170  0.30053928  0.16390761     0.21700
H415        H  0.19347733  0.25743300  0.05526639     0.27100
H416        H  0.21021911  0.28498651  0.19986821     0.15900
C417        C  0.26460668  0.96839807  0.47874549    -0.11400
C418        C  0.27237939  0.00492204  0.49458371     0.15100
C419        C  0.28229204  0.03618162  0.46977992     0.02000
C420        C  0.28233056  0.03163287  0.43046889    -0.15800
C421        C  0.27314208  0.99624654  0.41506370    -0.10600
C422        C  0.26505590  0.96365481  0.43947824     0.08800
C423        C  0.26784465  0.01030385  0.53694576     0.09800
S424        S  0.29426781  0.08327640  0.48635155    -0.24900
H425        H  0.28852509  0.05673371  0.41182389     0.20100
S426        S  0.25434178  0.91587851  0.42210750    -0.30600
H427        H  0.25731175  0.94394198  0.49728101     0.10400
C428        C  0.24538846  0.04184556  0.55634139     0.03600
C429        C  0.23950579  0.04218596  0.59625636    -0.12900
C430        C  0.25506758  0.01112066  0.61761853    -0.08600
C431        C  0.27771657  0.97986958  0.59814091     0.07000
C432        C  0.28407372  0.98016107  0.55829488    -0.13600
S433        S  0.22260784  0.07942642  0.53027996    -0.30600
H434        H  0.22183893  0.06563693  0.61105326     0.11300
S435        S  0.29760805  0.93653119  0.62212796    -0.27700
H436        H  0.30096716  0.95529674  0.54363053     0.08500
H437        H  0.26970078  0.91555645  0.38531161     0.26900
H438        H  0.20582902  0.10312953  0.56196854     0.21700
H439        H  0.27415108  0.92986588  0.64846264     0.27100
H440        H  0.30144218  0.06582432  0.52072688     0.15900
C441        C  0.02481375  0.77681671  0.19780236    -0.11400
C442        C  0.03426201  0.77093231  0.15861571     0.15100
C443        C  0.54688344  0.80997401  0.14261657     0.02000
C444        C  0.54893490  0.84644586  0.16478022    -0.15800
C445        C  0.03750978  0.84898742  0.19758137    -0.10600
C446        C  0.02653627  0.81509602  0.21736776     0.08800
C447        C  0.02793674  0.73269536  0.13842379     0.09800
S448        S  0.56127940  0.80889776  0.09286108    -0.24900
H449        H  0.55826375  0.87259399  0.15126831     0.20100
S450        S  0.01246762  0.82042682  0.26723128    -0.30600
H451        H  0.01514082  0.75196722  0.21304653     0.10400
C452        C  0.04933649  0.69687927  0.12374143     0.03600
C453        C  0.04208582  0.66300516  0.10303654    -0.12900
C454        C  0.51363954  0.66975517  0.09556031    -0.08600
C455        C  0.49211724  0.70593097  0.10927658     0.07000
C456        C  0.49875260  0.73996452  0.13014785    -0.13600
S457        S  0.08562696  0.69380727  0.13234038    -0.30600
H458        H  0.05840443  0.63533617  0.09196236     0.11300
S459        S  0.45605943  0.71146756  0.09930147    -0.27700
H460        H  0.48193837  0.76722928  0.14081192     0.08500
H461        H  0.02841694  0.85140453  0.27619473     0.26900
H462        H  0.09699009  0.65349697  0.11307953     0.21700
H463        H  0.46379623  0.69183162  0.06268602     0.27100
H464        H  0.54135401  0.78708098  0.07987543     0.15900
C465        C  0.01639593  0.25897752  0.11266910    -0.11400
C466        C  0.49488306  0.25229671  0.14030391     0.15100
C467        C  0.46906346  0.28305167  0.14272980     0.02000
C468        C  0.46755213  0.31953574  0.11957464    -0.15800
C469        C  0.49123700  0.32653799  0.09376751    -0.10600
C470        C  0.01575753  0.29548653  0.08968606     0.08800
C471        C  0.49723558  0.21181217  0.16259103     0.09800
S472        S  0.43696361  0.27742723  0.17403256    -0.24900
H473        H  0.44776761  0.34323629  0.12244471     0.20100
S474        S  0.04748047  0.29752848  0.05656759    -0.30600
H475        H  0.03592124  0.23481651  0.11087256     0.10400
C476        C  0.98634565  0.17362246  0.14369323     0.03600
C477        C  0.98793554  0.13581685  0.16523169    -0.12900
C478        C  0.49851118  0.13706410  0.20788877    -0.08600
C479        C  0.50613092  0.17524114  0.22156386     0.07000
C480        C  0.50577719  0.21191713  0.19862359    -0.11600
S481        S  0.97530888  0.17356530  0.09739958    -0.30600
H482        H  0.98269605  0.10657894  0.15394211     0.11300
S483        S  0.51496542  0.17996568  0.26861690    -0.27700
H484        H  0.51122856  0.24128815  0.20943062     0.08500
H485        H  0.03232911  0.31001264  0.02624601     0.26900
H486        H  0.97047439  0.13043679  0.09760391     0.21700
H487        H  0.49693595  0.15247969  0.28548738     0.27100
H488        H  0.44984770  0.25115803  0.20097380     0.15900
C489        C  0.41141805  0.94465759  0.25569791    -0.11400
C490        C  0.40119999  0.96895599  0.22614251     0.15100
C491        C  0.41764188  0.99577089  0.20544896     0.02000
C492        C  0.44241592  0.00212204  0.21803495    -0.15800
C493        C  0.45023973  0.98414216  0.25215331    -0.10600
C494        C  0.43624658  0.95052722  0.26820981     0.08800
C495        C  0.37064466  0.97633399  0.22715424     0.09800
S496        S  0.40694304  0.02460607  0.16454985    -0.24900
H497        H  0.45581985  0.02027624  0.20015794     0.20100
S498        S  0.44780216  0.91215405  0.30336966    -0.30600
H499        H  0.39888082  0.92289688  0.27090510     0.10400
C500        C  0.35688353  0.94099020  0.22470175     0.03600
C501        C  0.32848868  0.94564783  0.24086219    -0.12900
C502        C  0.31283670  0.98615596  0.25588327    -0.08600
C503        C  0.32734120  0.02116220  0.25959451     0.07000
C504        C  0.35583670  0.01616439  0.24396976    -0.13600
S505        S  0.37625695  0.88895088  0.20414698    -0.30600
H506        H  0.31963082  0.91656568  0.24454542     0.11300
S507        S  0.31140525  0.07032356  0.28806291    -0.27700
H508        H  0.36747222  0.04187499  0.24834927     0.08500
H509        H  0.47719824  0.91043101  0.29517005     0.26900
H510        H  0.35241711  0.86867988  0.20532781     0.21700
H511        H  0.33175723  0.09551228  0.27384935     0.27100
H512        H  0.38818632  0.99734155  0.15669901     0.15900
C513        C  0.15223896  0.98024491  0.33124737    -0.11400
C514        C  0.13612636  0.01739000  0.31786512     0.15100
C515        C  0.14751265  0.05562504  0.31219532     0.02000
C516        C  0.17628864  0.05312151  0.31373356    -0.15800
C517        C  0.19404613  0.01232224  0.31509437    -0.10600
C518        C  0.18144737  0.97700831  0.33022852     0.08800
C519        C  0.10949323  0.01310344  0.30520459     0.09800
S520        S  0.12769921  0.10673213  0.29869946    -0.24900
H521        H  0.18502986  0.08252671  0.31070160     0.20100
S522        S  0.19996955  0.92602460  0.34653369    -0.30600
H523        H  0.14257093  0.95207222  0.33867051     0.10400
C524        C  0.10957084  0.98589551  0.27365590     0.03600
C525        C  0.08374193  0.98241106  0.26229780    -0.12900
C526        C  0.05781904  0.00492943  0.28204106    -0.08600
C527        C  0.05850988  0.03693780  0.31068601     0.07000
C528        C  0.08423860  0.03851156  0.32309441    -0.13600
S529        S  0.14252232  0.95709107  0.24657318    -0.30600
H530        H  0.08415318  0.96376688  0.23678623     0.11300
S531        S  0.02907129  0.07849453  0.33312834    -0.27700
H532        H  0.08481247  0.06091518  0.34617657     0.08500
H533        H  0.22825868  0.93147326  0.33920267     0.26900
H534        H  0.13019951  0.93110468  0.22392630     0.21700
H535        H  0.00696991  0.07335410  0.31345323     0.27100
H536        H  0.11374078  0.08819147  0.27263556     0.15900
C537        C  0.46660067  0.96494006  0.55115633    -0.11400
C538        C  0.45546778  0.00256835  0.53269773     0.15100
C539        C  0.44160866  0.04033528  0.55494298     0.02000
C540        C  0.44066095  0.04027547  0.59458418    -0.15800
C541        C  0.45271244  0.00305464  0.61279202    -0.10600
C542        C  0.46518814  0.96468749  0.59074730     0.08800
C543        C  0.46044454  0.00186728  0.49032390     0.09800
S544        S  0.42526327  0.08978588  0.53444476    -0.24900
H545        H  0.43103373  0.06974157  0.61136377     0.20100
S546        S  0.98082114  0.91075657  0.60492771    -0.30600
H547        H  0.97680171  0.93217802  0.52809540     0.10400
C548        C  0.97817417  0.02455515  0.46438508     0.03600
C549        C  0.98364459  0.02227206  0.42444807    -0.12900
C550        C  0.47255693  0.99429046  0.40977456    -0.08600
C551        C  0.45369399  0.96983853  0.43017256     0.07000
C552        C  0.44743128  0.97452992  0.46997661    -0.13600
S553        S  0.99652635  0.05775686  0.48998218    -0.30600
H554        H  0.99778607  0.04191311  0.40961035     0.11300
S555        S  0.43900624  0.92944522  0.40758614    -0.27700
H556        H  0.43314883  0.95539487  0.48537755     0.08500
H557        H  0.96515888  0.91939935  0.64153559     0.26900
H558        H  0.00655719  0.08098416  0.45864964     0.21700
H559        H  0.46405517  0.91459522  0.38180635     0.27100
H560        H  0.41899203  0.06950812  0.50227102     0.15900
C561        C  0.53016555  0.99781459  0.27867986     0.30000
C562        C  0.97770870  0.98936160  0.25636282     0.30000
C563        C  0.50824030  0.99127084  0.31304319    -0.06200
C564        C  0.51516108  0.03686275  0.25825127    -0.07000
C565        C  0.52927739  0.95806711  0.25236288    -0.06900
C566        C  0.98094384  0.98935005  0.29902494    -0.06200
C567        C  0.98800304  0.03168062  0.24350232    -0.07000
C568        C  0.00234906  0.95399065  0.23777758    -0.06900
C569        C  0.96388493  0.99133978  0.33443592    -0.32300
N570        N  0.98070843  0.99011217  0.36223069     0.14200
C571        C  0.50815931  0.98800112  0.35154191    -0.32300
H572        H  0.52642595  0.98691484  0.36613861     0.16200
C573        C  0.97770127  0.07023662  0.22676672    -0.31200
N574        N  0.99833666  0.09483262  0.22176668     0.13000
C575        C  0.52195199  0.07545818  0.24401385    -0.31200
C576        C  0.00350492  0.91638629  0.21709226    -0.31500
N577        N  0.52947124  0.89542470  0.22023641     0.13500
H578        H  0.98561862  0.90513046  0.20782740     0.16100
C579        C  0.54600470  0.91808581  0.23760068    -0.31500
H580        H  0.56782490  0.90507592  0.24119795     0.16100
H581        H  0.54220331  0.08587425  0.24338067     0.16100
H582        H  0.94091540  0.99430126  0.33951076     0.16200
H583        H  0.95670922  0.08018182  0.21877337     0.16100
C584        C  0.78067529  0.99124391  0.26833775     0.30000
C585        C  0.72417931  0.00796732  0.29605064     0.30000
C586        C  0.77297367  0.99800165  0.31183270    -0.06200
C587        C  0.76319602  0.03169935  0.25253557    -0.07000
C588        C  0.76400880  0.95556065  0.25892964    -0.06900
C589        C  0.74420307  0.00724354  0.32537455    -0.06200
C590        C  0.73423769  0.04125411  0.26670848    -0.07000
C591        C  0.73506030  0.96415868  0.27334759    -0.06900
C592        C  0.74086924  0.01127850  0.36435215    -0.32300
N593        N  0.76704891  0.00410695  0.37520852     0.14200
C594        C  0.78699326  0.99613199  0.34340939    -0.32300
H595        H  0.80983158  0.98838834  0.34332266     0.16200
C596        C  0.72300580  0.07787042  0.24732085    -0.31200
N597        N  0.74438331  0.09009034  0.22269286     0.13000
C598        C  0.76884015  0.06155022  0.22524023    -0.31200
C599        C  0.72243480  0.93455556  0.25580518    -0.31500
N600        N  0.74283847  0.90801057  0.23148813     0.13500
H601        H  0.69994872  0.93356252  0.25927166     0.16100
C602        C  0.76766003  0.92237324  0.23153352    -0.31500
H603        H  0.78636187  0.91088196  0.21088436     0.16100
H604        H  0.78937690  0.06291764  0.20875570     0.16100
H605        H  0.72085199  0.01733983  0.38357374     0.16200
H606        H  0.70093027  0.09408455  0.24982852     0.16100
C607        C  0.99271336  0.00154547  0.73295362     0.30000
C608        C  0.93543798  0.01254006  0.75374283     0.30000
C609        C  0.97522538  0.00352068  0.69962678    -0.06200
C610        C  0.98242162  0.96575917  0.75787823    -0.07000
C611        C  0.97819417  0.04465100  0.75513610    -0.06900
C612        C  0.94572783  0.00789144  0.71019829    -0.06200
C613        C  0.95321388  0.97064398  0.76759528    -0.07000
C614        C  0.94933585  0.04898131  0.76657979    -0.06900
C615        C  0.93425633  0.00555045  0.67681845    -0.32300
N616        N  0.95564175  0.00212930  0.64675196     0.14200
C617        C  0.98048609  0.00212519  0.66036326    -0.32300
H618        H  0.49988205  0.00449914  0.64966782     0.16200
C619        C  0.94818665  0.93485117  0.78863274    -0.31200
N620        N  0.97347750  0.91039230  0.79435857     0.13000
C621        C  0.99472260  0.92844009  0.77498902    -0.31200
C622        C  0.93986752  0.08784917  0.78709014    -0.31500
N623        N  0.96218739  0.10857203  0.78714819     0.13500
H624        H  0.91834804  0.09987953  0.80125150     0.16100
C625        C  0.98566003  0.08270606  0.76736626    -0.31500
H626        H  0.50452482  0.09250741  0.77042265     0.16100
H627        H  0.51459497  0.91812493  0.78163879     0.16100
H628        H  0.91212416  0.00572570  0.67448065     0.16200
H629        H  0.92763184  0.92738000  0.80009449     0.16100
C630        C  0.74188005  0.00919630  0.76326672     0.30000
C631        C  0.68974696  0.01159041  0.74267715     0.30000
C632        C  0.74170006  0.00495938  0.72012773    -0.06200
C633        C  0.72566280  0.97458233  0.78047509    -0.07000
C634        C  0.72006424  0.05234458  0.77355868    -0.06900
C635        C  0.71502637  0.00511074  0.71027975    -0.06200
C636        C  0.69898797  0.97562692  0.77076816    -0.07000
C637        C  0.69285272  0.05331622  0.76440361    -0.06900
C638        C  0.71751027  0.00538092  0.67134243    -0.32300
N639        N  0.74493972  0.00634732  0.65671360     0.14200
C640        C  0.75991658  0.00715326  0.68626013    -0.32300
H641        H  0.78200176  0.01081579  0.68338721     0.16200
C642        C  0.68779610  0.94324686  0.79140074    -0.31200
N643        N  0.70746277  0.92252064  0.81238379     0.13000
C644        C  0.73080201  0.94137101  0.80540243    -0.31200
C645        C  0.67588487  0.09181740  0.78102177    -0.31500
N646        N  0.69263033  0.11479650  0.79735470     0.13500
H647        H  0.65302108  0.10164893  0.78235680     0.16100
C648        C  0.71960161  0.09156360  0.79194496    -0.31500
H649        H  0.73734751  0.10252048  0.80180618     0.16100
H650        H  0.75032997  0.93139192  0.81727032     0.16100
H651        H  0.70023386  0.00704619  0.65480974     0.16200
H652        H  0.66681727  0.93552488  0.79151464     0.16100
Zr653      Zr  0.94315225  0.44773713  0.02573110     2.17500
O654        O  0.91284701  0.42046759  0.07757588    -0.51300
O655        O  0.94477014  0.39004620  0.97741861    -0.74600
O656        O  0.88885327  0.47047059  0.02049195    -0.81300
O657        O  0.51169334  0.38487327  0.06527233    -0.83100
O658        O  0.88231502  0.53975487  0.99956255    -0.78700
O659        O  0.96431103  0.38491336  0.05985788    -0.90300
O660        O  0.97718497  0.40133704  0.92707002    -0.76300
O661        O  0.94508020  0.48652226  0.96839843    -0.85800
O662        O  0.99255248  0.42928762  0.99485434    -0.85500
O663        O  0.93183892  0.52304732  0.04737841    -0.72200
O664        O  0.97765958  0.46826683  0.06333034    -0.84400
Zr665      Zr  0.51695670  0.56216616  0.99786469     2.26400
Zr666      Zr  0.93264276  0.56149074  0.98951508     2.06300
Zr667      Zr  0.52659461  0.44981879  0.03636084     2.10000
Zr668      Zr  0.99371057  0.46789689  0.93761838     1.78800
O669        O  0.54425468  0.43494132  0.09651398    -0.93200
O670        O  0.96806602  0.48205887  0.88347021    -0.41000
O671        O  0.52759564  0.48688873  0.97795527    -0.77600
O672        O  0.98204209  0.54282340  0.95723486    -0.96300
O673        O  0.96755498  0.58105848  0.02635838    -0.89600
O674        O  0.51527467  0.52497738  0.05590911    -0.92500
C675        C  0.95954721  0.37936948  0.94436719     1.01300
C676        C  0.98866428  0.36839081  0.06976388     1.14200
C677        C  0.87149002  0.50525214  0.01087164     1.05000
O678        O  0.91376642  0.57331448  0.92987876    -0.94600
O679        O  0.94747461  0.62727578  0.96079501    -0.90400
O680        O  0.99413852  0.62837848  0.96647584    -0.83500
C681        C  0.97009064  0.64464080  0.95546702     1.11600
O682        O  0.93954712  0.51202163  0.13683438    -0.96600
Zr683      Zr  0.96629144  0.54329260  0.08385869     1.88900
O684        O  0.52110018  0.61733980  0.04440110    -0.73200
O685        O  0.89992814  0.62133250  0.02574841    -0.52500
O686        O  0.92556727  0.60088312  0.10619130    -0.97200
O687        O  0.98728809  0.52859114  0.14180143    -0.54400
O688        O  0.98718168  0.60723109  0.09456428    -0.73700
C689        C  0.00666898  0.62627987  0.07721221     0.98600
O690        O  0.54719415  0.57938326  0.94094291    -0.62600
O691        O  0.56070392  0.39243614  0.99887749    -0.57400
O692        O  0.57065964  0.53970204  0.00400981    -0.94100
O693        O  0.57641618  0.47149660  0.02748186    -0.92500
O694        O  0.53383773  0.40976875  0.92094838    -0.92800
O695        O  0.52244858  0.48574395  0.88568021    -0.91600
C696        C  0.58741721  0.50535739  0.01523823     1.17400
H697        H  0.99770026  0.39825567  0.98933147     0.33400
H698        H  0.98349321  0.55860440  0.93392027     0.44200
H699        H  0.52899963  0.53222231  0.07085796     0.37800
H700        H  0.91295580  0.52950153  0.06201554     0.34200
H701        H  0.97267494  0.45425252  0.86837774     0.26000
H702        H  0.91220680  0.64168336  0.03195396     0.32000
H703        H  0.92834663  0.60860191  0.13217767     0.37900
H704        H  0.52726104  0.39126690  0.90277194     0.32300
H705        H  0.57160474  0.37621994  0.01756144     0.31200
H706        H  0.56383109  0.41784511  0.08939311     0.32900
H707        H  0.98467834  0.55741622  0.15492399     0.31900
H708        H  0.52645399  0.51474650  0.89178093     0.35900
H709        H  0.56019637  0.55141103  0.93269653     0.28600
H710        H  0.90106673  0.40357397  0.06517087     0.32800
H711        H  0.91988258  0.51562936  0.13073689     0.35700
H712        H  0.54909875  0.37202414  0.99088124     0.28300
H713        H  0.53458041  0.58453336  0.92119671     0.41200
H714        H  0.89495085  0.59278853  0.93686440     0.31200
H715        H  0.94761409  0.48493856  0.89405439     0.38800
H716        H  0.00811282  0.52034513  0.13335477     0.30700
H717        H  0.88880981  0.63676080  0.00690736     0.30700
H718        H  0.89931927  0.44659685  0.08918003     0.31000
Zr719      Zr  0.69247123  0.44614978  0.02836680     2.17500
O720        O  0.66271335  0.41995969  0.08143789    -0.51300
O721        O  0.69017112  0.39232550  0.97898037    -0.74600
O722        O  0.63841019  0.46981949  0.02362373    -0.81300
O723        O  0.76179937  0.38148682  0.06190258    -0.83100
O724        O  0.63197017  0.53934427  0.00312178    -0.78700
O725        O  0.71466756  0.38141856  0.05935735    -0.90300
O726        O  0.72154763  0.40443688  0.92784073    -0.76300
O727        O  0.69365119  0.48689207  0.97214536    -0.85800
O728        O  0.74169251  0.42838803  0.99654343    -0.85500
O729        O  0.68102241  0.52039935  0.05181170    -0.72200
O730        O  0.72757173  0.46485595  0.06567577    -0.84400
Zr731      Zr  0.76503660  0.56302892  0.00014491     2.26400
Zr732      Zr  0.68162708  0.56112060  0.99509970     2.06300
Zr733      Zr  0.77669909  0.44752872  0.03352393     2.10000
Zr734      Zr  0.74183088  0.46846226  0.94035514     1.78800
O735        O  0.79601996  0.43398688  0.09270633    -0.93200
O736        O  0.71793937  0.48897350  0.88552790    -0.41000
O737        O  0.77623006  0.48829205  0.97700661    -0.77600
O738        O  0.73061899  0.54348087  0.96152611    -0.96300
O739        O  0.71624638  0.57937822  0.03259202    -0.89600
O740        O  0.76397554  0.52186547  0.05643711    -0.92500
C741        C  0.70347419  0.38275597  0.94503001     1.01300
C742        C  0.73917845  0.36415510  0.06837794     1.14200
C743        C  0.62130876  0.50476516  0.01394373     1.05000
O744        O  0.66257612  0.57760259  0.93608292    -0.94600
O745        O  0.69462543  0.62854784  0.96899465    -0.90400
O746        O  0.74185515  0.62916114  0.97039031    -0.83500
C747        C  0.71689587  0.64634755  0.96236857     1.11600
O748        O  0.69344834  0.50374796  0.14305808    -0.96600
Zr749      Zr  0.71565047  0.53879198  0.08861516     1.88900
O750        O  0.76240972  0.62039976  0.04902068    -0.73200
O751        O  0.64951938  0.61897840  0.03467388    -0.52500
O752        O  0.67139422  0.58703445  0.11573259    -0.97200
O753        O  0.74070174  0.52761459  0.14346115    -0.54400
O754        O  0.72813813  0.60963585  0.09733450    -0.73700
C755        C  0.74560706  0.63231637  0.08044472     0.98600
O756        O  0.79846998  0.58692766  0.95002929    -0.62600
O757        O  0.80941747  0.38823070  0.99658964    -0.57400
O758        O  0.81952583  0.54062434  0.00439475    -0.94100
O759        O  0.82658910  0.47052175  0.02349174    -0.92500
O760        O  0.78197275  0.41087301  0.91595291    -0.92800
O761        O  0.77233186  0.49323546  0.88738501    -0.91600
C762        C  0.83713370  0.50551620  0.01302274     1.17400
H763        H  0.74675705  0.39755216  0.98998267     0.33400
H764        H  0.73166628  0.55999969  0.93862691     0.44200
H765        H  0.77733502  0.52892272  0.07207056     0.37800
H766        H  0.66220470  0.52611218  0.06670220     0.34200
H767        H  0.71037284  0.46308238  0.87865630     0.26000
H768        H  0.63510421  0.63140486  0.01857867     0.32000
H769        H  0.67621851  0.60163882  0.13794584     0.37900
H770        H  0.77956915  0.40555665  0.88931469     0.32300
H771        H  0.81812794  0.40243264  0.97420994     0.31200
H772        H  0.80910505  0.40532322  0.08834986     0.32900
H773        H  0.75239833  0.55063220  0.14242756     0.31900
H774        H  0.77980602  0.51715281  0.89838445     0.35900
H775        H  0.78852584  0.59044840  0.92749623     0.28600
H776        H  0.65119137  0.40206322  0.06965515     0.32800
H777        H  0.69073658  0.47552902  0.13279497     0.35700
H778        H  0.82507976  0.37978450  0.01180780     0.28300
H779        H  0.79952287  0.61699970  0.95785310     0.41200
H780        H  0.64671255  0.60281553  0.94276117     0.31200
H781        H  0.70076199  0.51075842  0.89568296     0.38800
H782        H  0.75474059  0.50010459  0.13735785     0.30700
H783        H  0.63893160  0.60370002  0.05467538     0.30700
H784        H  0.64888114  0.44614398  0.09234001     0.31000
C785        C  0.71548740  0.84259089  0.89135615    -0.11400
C786        C  0.70619496  0.80677772  0.87684268     0.15100
C787        C  0.69526015  0.81085735  0.84200622     0.02000
C788        C  0.69507122  0.84965675  0.82188280    -0.15800
C789        C  0.70511638  0.88513545  0.83589585    -0.10600
C790        C  0.71462860  0.88170812  0.87175983     0.08800
C791        C  0.70902382  0.76553165  0.89835998     0.09800
S792        S  0.68266431  0.76709507  0.82065983    -0.24900
H793        H  0.68774089  0.85178447  0.79450916     0.20100
S794        S  0.72505595  0.92645941  0.89475978    -0.30600
H795        H  0.72339067  0.84007263  0.91836778     0.10400
C796        C  0.73482179  0.73478674  0.89407910     0.03600
C797        C  0.73707341  0.69718722  0.91618533    -0.12900
C798        C  0.71387344  0.68895683  0.94237124    -0.08600
C799        C  0.68803953  0.72041482  0.94668469     0.07000
C800        C  0.68602819  0.75807769  0.92488956    -0.13600
S801        S  0.76470734  0.74304009  0.85969594    -0.30600
H802        H  0.75680036  0.67339196  0.91218341     0.11300
S803        S  0.65694474  0.71551403  0.98008626    -0.27700
H804        H  0.66630549  0.78197627  0.92870878     0.08500
H805        H  0.70618254  0.95936943  0.87942550     0.26900
H806        H  0.78393077  0.70570352  0.86791296     0.21700
H807        H  0.67255009  0.69872356  0.00884712     0.27100
H808        H  0.67244466  0.74872345  0.85464647     0.15900
C809        C  0.71324211  0.28362994  0.87713542    -0.11400
C810        C  0.68564428  0.27436926  0.88096506     0.15100
C811        C  0.66384128  0.30017118  0.90700288     0.02000
C812        C  0.67014898  0.33463086  0.92805761    -0.15800
C813        C  0.69788497  0.34417558  0.92396833    -0.10600
C814        C  0.71970571  0.31715226  0.89866737     0.08800
C815        C  0.68165485  0.23470839  0.86019966     0.09800
S816        S  0.62768690  0.29065905  0.91493881    -0.24900
H817        H  0.65312758  0.35454406  0.94738162     0.20100
S818        S  0.75683515  0.32100097  0.89460903    -0.30600
H819        H  0.73030138  0.26317053  0.85824043     0.10400
C820        C  0.67909097  0.23484025  0.82115996     0.03600
C821        C  0.68029438  0.19508899  0.80133945    -0.12900
C822        C  0.68414224  0.15507795  0.81971038    -0.08600
C823        C  0.68526357  0.15538848  0.85914700     0.07000
C824        C  0.68404770  0.19489942  0.87885943    -0.13600
S825        S  0.67565952  0.28540116  0.79620483    -0.30600
H826        H  0.67999674  0.19476073  0.77101857     0.11300
S827        S  0.69007979  0.10578638  0.88525949    -0.27700
H828        H  0.68618021  0.19439036  0.90872417     0.08500
H829        H  0.75593426  0.33023781  0.93351111     0.26900
H830        H  0.67021730  0.26817187  0.76206929     0.21700
H831        H  0.67755011  0.08160748  0.86137787     0.27100
H832        H  0.62851897  0.26947933  0.87983658     0.15900
C833        C  0.96300181  0.84263518  0.88087916    -0.11400
C834        C  0.97614486  0.80057855  0.86662424     0.15100
C835        C  0.99059675  0.79582144  0.82871412     0.02000
C836        C  0.99035028  0.83252827  0.80572142    -0.15800
C837        C  0.97643364  0.87428362  0.81976476    -0.10600
C838        C  0.96346066  0.87934010  0.85823144     0.08800
C839        C  0.97320011  0.76229252  0.89120047     0.09800
S840        S  0.50828469  0.74674538  0.81372269    -0.24900
H841        H  0.49904786  0.83162439  0.78288626     0.20100
S842        S  0.94742062  0.93203180  0.88015079    -0.30600
H843        H  0.95213751  0.84689058  0.90990228     0.10400
C844        C  0.98612936  0.75541347  0.92432794     0.03600
C845        C  0.98398659  0.71756647  0.94526208    -0.12900
C846        C  0.96914670  0.68603000  0.93405961    -0.08600
C847        C  0.95570352  0.69365884  0.90121729     0.07000
C848        C  0.95756329  0.73168629  0.88066939    -0.13600
S849        S  0.00630498  0.79392776  0.93933817    -0.30600
H850        H  0.99423901  0.71222310  0.97036674     0.11300
S851        S  0.93760695  0.65494721  0.88219083    -0.27700
H852        H  0.94749909  0.73678127  0.85535835     0.08500
H853        H  0.96544895  0.95549271  0.85739557     0.26900
H854        H  0.01766442  0.76865395  0.96811683     0.21700
H855        H  0.95856459  0.61834998  0.88722991     0.27100
H856        H  0.51590432  0.72841072  0.84761970     0.15900
C857        C  0.95828103  0.26093716  0.91758452    -0.11400
C858        C  0.95949645  0.26334412  0.87791027     0.15100
C859        C  0.95913378  0.30449179  0.86117327     0.02000
C860        C  0.95721202  0.34169060  0.88410676    -0.15800
C861        C  0.95697022  0.33924326  0.92357596    -0.10600
C862        C  0.95793597  0.29800521  0.94034334     0.08800
C863        C  0.96058330  0.22293027  0.85470654     0.09800
S864        S  0.96246455  0.31176488  0.81055302    -0.24900
H865        H  0.95704705  0.37288463  0.87066237     0.20100
S866        S  0.96089361  0.28986961  0.98979341    -0.30600
H867        H  0.95850818  0.22962493  0.93079573     0.10400
C868        C  0.98311007  0.18647123  0.85359235     0.03600
C869        C  0.98327157  0.14952598  0.83083133    -0.12900
C870        C  0.96182298  0.14827577  0.80833800    -0.08600
C871        C  0.93987683  0.18541737  0.80846395     0.07000
C872        C  0.93907480  0.22158584  0.83229659    -0.13600
S873        S  0.50676874  0.19205594  0.88800617    -0.30600
H874        H  0.49651834  0.12469485  0.83849852     0.11300
S875        S  0.91331557  0.18986825  0.77728906    -0.27700
H876        H  0.92190202  0.24956417  0.83257566     0.08500
H877        H  0.97998732  0.31859273  0.99162214     0.26900
H878        H  0.52084488  0.14838834  0.88103931     0.21700
H879        H  0.93128234  0.16436737  0.74746589     0.27100
H880        H  0.98054750  0.27128379  0.80045966     0.15900
C881        C  0.85466081  0.05109801  0.76844706    -0.11400
C882        C  0.84765191  0.02572770  0.79954568     0.15100
C883        C  0.86848816  0.00656440  0.82090036     0.02000
C884        C  0.89654688  0.00830869  0.80715093    -0.15800
C885        C  0.90425884  0.02200875  0.76994642    -0.10600
C886        C  0.88301569  0.05020353  0.75350895     0.08800
C887        C  0.82119249  0.01053576  0.80079962     0.09800
S888        S  0.86151437  0.97623390  0.86334362    -0.24900
H889        H  0.91245651  0.99656901  0.82498315     0.20100
S890        S  0.88932995  0.08666614  0.71513739    -0.30600
H891        H  0.83797444  0.06837596  0.75371234     0.10400
C892        C  0.79614390  0.03245389  0.82252772     0.03600
C893        C  0.77042611  0.02645389  0.81244488    -0.12900
C894        C  0.76987271  0.00460585  0.77793447    -0.08600
C895        C  0.79485354  0.97506507  0.76175479     0.07000
C896        C  0.82050225  0.97916409  0.77308106    -0.13600
S897        S  0.79701701  0.06965858  0.86103594    -0.30600
H898        H  0.75089367  0.04021636  0.83077261     0.11300
S899        S  0.79648645  0.93121946  0.72775568    -0.27700
H900        H  0.84028459  0.96021624  0.75825959     0.08500
H901        H  0.91667881  0.09177229  0.72058588     0.26900
H902        H  0.76751379  0.08676124  0.86746574     0.21700
H903        H  0.76858554  0.92414886  0.73794802     0.27100
H904        H  0.83233024  0.97707585  0.86350560     0.15900
C905        C  0.56832687  0.97275651  0.69166588    -0.11400
C906        C  0.58108648  0.99476223  0.71655750     0.15100
C907        C  0.56573943  0.01111771  0.75193714     0.02000
C908        C  0.53692723  0.01084542  0.75919606    -0.15800
C909        C  0.52284124  0.99570147  0.73162677    -0.10600
C910        C  0.53955031  0.97002345  0.70061055     0.08800
C911        C  0.61107703  0.99691500  0.70787641     0.09800
S912        S  0.58151339  0.03278888  0.78902393    -0.24900
H913        H  0.52550599  0.02246829  0.78686556     0.20100
S914        S  0.52682770  0.92712623  0.67801975    -0.30600
H915        H  0.58127567  0.95590305  0.66662796     0.10400
C916        C  0.63170168  0.96005522  0.71235355     0.03600
C917        C  0.65794917  0.96640205  0.72017264    -0.12900
C918        C  0.66283866  0.00872722  0.72689386    -0.08600
C919        C  0.64474188  0.04445434  0.71299275     0.07000
C920        C  0.61839137  0.03824799  0.70489969    -0.13600
S921        S  0.62367734  0.90567066  0.71290565    -0.30600
H922        H  0.67417387  0.93805626  0.72292773     0.11300
S923        S  0.65359225  0.09731761  0.70239728    -0.27700
H924        H  0.60278531  0.06612692  0.69872149     0.08500
H925        H  0.05531093  0.90464114  0.65183231     0.26900
H926        H  0.64813068  0.88486231  0.72753759     0.21700
H927        H  0.68328090  0.08353197  0.69511202     0.27100
H928        H  0.60722919  0.00214876  0.78302336     0.15900
C929        C  0.72729969  0.80029730  0.19940188    -0.11400
C930        C  0.74112223  0.79658576  0.16157788     0.15100
C931        C  0.75285536  0.83224627  0.14621506     0.02000
C932        C  0.75220847  0.86897077  0.16941853    -0.15800
C933        C  0.73963233  0.87191843  0.20778925    -0.10600
C934        C  0.72676232  0.83703898  0.22268594     0.08800
C935        C  0.74324643  0.75496989  0.13935333     0.09800
S936        S  0.76911855  0.83306567  0.09731235    -0.24900
H937        H  0.76185665  0.89557834  0.15746467     0.20100
S938        S  0.71143605  0.83568356  0.27181021    -0.30600
H939        H  0.71799543  0.77337833  0.21143461     0.10400
C940        C  0.76959594  0.72627436  0.12762139     0.03600
C941        C  0.77021815  0.68721744  0.10703736    -0.12900
C942        C  0.74497849  0.67584823  0.09832660    -0.08600
C943        C  0.71876516  0.70513765  0.10961190     0.07000
C944        C  0.71816801  0.74371356  0.13026470    -0.13600
S945        S  0.80224746  0.73820269  0.14058493    -0.30600
H946        H  0.79024561  0.66474311  0.09885478     0.11300
S947        S  0.68525447  0.69583368  0.09757992    -0.27700
H948        H  0.69792365  0.76561742  0.13884215     0.08500
H949        H  0.73295428  0.85301571  0.28580084     0.26900
H950        H  0.82065267  0.70149629  0.12204662     0.21700
H951        H  0.69697962  0.67384719  0.06270653     0.27100
H952        H  0.75337804  0.80500309  0.08273159     0.15900
C953        C  0.75055182  0.16438049  0.13948770    -0.11400
C954        C  0.74416194  0.20591623  0.15764240     0.15100
C955        C  0.73646897  0.20858531  0.19771474     0.02000
C956        C  0.73597426  0.17015657  0.21830476    -0.15800
C957        C  0.74253982  0.12874872  0.20008365    -0.10600
C958        C  0.74970942  0.12609909  0.16010667     0.08800
C959        C  0.74426824  0.24547296  0.13370180     0.09800
S960        S  0.72694659  0.25973666  0.22452839    -0.24900
H961        H  0.73072601  0.17243821  0.24896784     0.20100
S962        S  0.75743263  0.07479990  0.13375235    -0.30600
H963        H  0.75604204  0.16177983  0.10884442     0.10400
C964        C  0.76433338  0.27305746  0.13441016     0.03600
C965        C  0.76242262  0.31088847  0.11257085    -0.12900
C966        C  0.74129688  0.32168511  0.08888637    -0.08600
C967        C  0.72238686  0.29213470  0.08633281     0.07000
C968        C  0.72396186  0.25499227  0.10899470    -0.13600
S969        S  0.79274136  0.25998407  0.16267165    -0.30600
H970        H  0.77727312  0.33258801  0.11458510     0.11300
S971        S  0.69689858  0.29967755  0.05322442    -0.27700
H972        H  0.70916649  0.23304522  0.10764141     0.08500
H973        H  0.74116913  0.05261423  0.16035330     0.26900
H974        H  0.80954970  0.28894052  0.14532447     0.21700
H975        H  0.68544171  0.26188616  0.06162904     0.27100
H976        H  0.71681665  0.28562257  0.19540679     0.15900
C977        C  0.76413984  0.97223805  0.47698635    -0.11400
C978        C  0.77113401  0.00876075  0.49387027     0.15100
C979        C  0.78024795  0.04144035  0.47006951     0.02000
C980        C  0.78005082  0.03832089  0.43068714    -0.15800
C981        C  0.77182108  0.00266017  0.41421729    -0.10600
C982        C  0.76463609  0.96869862  0.43764883     0.08800
C983        C  0.76683173  0.01238681  0.53627622     0.09800
S984        S  0.79193823  0.08814069  0.48802050    -0.24900
H985        H  0.78562625  0.06441574  0.41280087     0.20100
S986        S  0.75513910  0.92053113  0.41903094    -0.30600
H987        H  0.75750351  0.94669902  0.49476549     0.10400
C988        C  0.74456636  0.04345888  0.55665185     0.03600
C989        C  0.73904346  0.04230276  0.59646715    -0.12900
C990        C  0.75462986  0.01005145  0.61668733    -0.08600
C991        C  0.77699960  0.97914414  0.59630666     0.07000
C992        C  0.78311370  0.98103291  0.55657477    -0.13600
S993        S  0.72153525  0.08237794  0.53199767    -0.30600
H994        H  0.72163806  0.06552457  0.61207626     0.11300
S995        S  0.79680572  0.93440467  0.61891726    -0.27700
H996        H  0.79983838  0.95651450  0.54113417     0.08500
H997        H  0.76987381  0.92218678  0.38211619     0.26900
H998        H  0.70400273  0.10340365  0.56440898     0.21700
H999        H  0.77351021  0.92765075  0.64549886     0.27100
H1000       H  0.79918244  0.06972030  0.52204444     0.15900
C1001       C  0.52122249  0.78183832  0.19792523    -0.11400
C1002       C  0.53239244  0.77738784  0.15911615     0.15100
C1003       C  0.04692608  0.80368896  0.13915418     0.02000
C1004       C  0.04853690  0.84211235  0.15886613    -0.15800
C1005       C  0.53632191  0.85198959  0.20302292    -0.10600
C1006       C  0.52319870  0.81831159  0.21987094     0.08800
C1007       C  0.52681857  0.74003044  0.13657131     0.09800
S1008       S  0.05966066  0.79987623  0.08878256    -0.24900
H1009       H  0.05636978  0.86832439  0.14329738     0.20100
S1010       S  0.50709280  0.82147139  0.26897595    -0.30600
H1011       H  0.51021677  0.75713095  0.21106097     0.10400
C1012       C  0.54864455  0.70483324  0.12154315     0.03600
C1013       C  0.54186745  0.67015237  0.10126157    -0.12900
C1014       C  0.01373149  0.66382062  0.09726359    -0.08600
C1015       C  0.99242260  0.69971334  0.11221397     0.07000
C1016       C  0.99965248  0.73326439  0.13286426    -0.13600
S1017       S  0.58492505  0.70295970  0.12962645    -0.30600
H1018       H  0.55847140  0.64255957  0.09084418     0.11300
S1019       S  0.95580861  0.70559307  0.10441459    -0.27700
H1020       H  0.98315561  0.76081425  0.14382860     0.08500
H1021       H  0.52325349  0.85066326  0.28089357     0.26900
H1022       H  0.59754463  0.66919490  0.10274780     0.21700
H1023       H  0.96214751  0.68625820  0.06766692     0.27100
H1024       H  0.03988170  0.77581989  0.07855100     0.15900
C1025       C  0.51837196  0.25851382  0.11402296    -0.11400
C1026       C  0.99195925  0.25211996  0.13665833     0.15100
C1027       C  0.96629363  0.28290740  0.13788415     0.02000
C1028       C  0.96578406  0.31994999  0.11549471    -0.15800
C1029       C  0.99033194  0.32728442  0.09153669    -0.10600
C1030       C  0.51669660  0.29457246  0.09035182     0.08800
C1031       C  0.99362311  0.21134912  0.15833299     0.09800
S1032       S  0.93326203  0.27637848  0.16651595    -0.24900
H1033       H  0.94601339  0.34353378  0.11719960     0.20100
S1034       S  0.54711656  0.29607016  0.05465826    -0.30600
H1035       H  0.53791120  0.23426213  0.11107719     0.10400
C1036       C  0.48998807  0.17367497  0.14872878     0.03600
C1037       C  0.49060912  0.13686561  0.17147702    -0.12900
C1038       C  0.99664431  0.13481883  0.20121525    -0.08600
C1039       C  0.00366761  0.17289523  0.21594035     0.07000
C1040       C  0.00253139  0.21043798  0.19413608    -0.11600
S1041       S  0.48006287  0.17190411  0.10189205    -0.30600
H1042       H  0.48519099  0.10744939  0.16082012     0.11300
S1043       S  0.01271023  0.17633119  0.26298688    -0.27700
H1044       H  0.00790374  0.23956322  0.20554377     0.08500
H1045       H  0.53058196  0.31116789  0.02624941     0.26900
H1046       H  0.47425292  0.12932640  0.10342986     0.21700
H1047       H  0.99484005  0.14825170  0.27914661     0.27100
H1048       H  0.94527185  0.25077247  0.19453797     0.15900
C1049       C  0.91089622  0.94210961  0.25050199    -0.11400
C1050       C  0.90043094  0.96604198  0.22091169     0.15100
C1051       C  0.91711634  0.99169041  0.19908193     0.02000
C1052       C  0.94225368  0.99790996  0.21091536    -0.15800
C1053       C  0.95028748  0.98066466  0.24521783    -0.10600
C1054       C  0.93611776  0.94768675  0.26213791     0.08800
C1055       C  0.86970691  0.97433851  0.22294434     0.09800
S1056       S  0.90647326  0.01869903  0.15735576    -0.24900
H1057       H  0.95569037  0.01554465  0.19249272     0.20100
S1058       S  0.94791466  0.90993213  0.29754146    -0.30600
H1059       H  0.89827225  0.92094388  0.26642369     0.10400
C1060       C  0.85542837  0.93949979  0.22116195     0.03600
C1061       C  0.82744865  0.94435883  0.23910917    -0.12900
C1062       C  0.81226748  0.98498978  0.25450060    -0.08600
C1063       C  0.82719132  0.01976295  0.25709169     0.07000
C1064       C  0.85551311  0.01426946  0.24022987    -0.13600
S1065       S  0.87361582  0.88783233  0.19873297    -0.30600
H1066       H  0.81864461  0.91531108  0.24357328     0.11300
S1067       S  0.81165518  0.06982537  0.28454635    -0.27700
H1068       H  0.86748821  0.03988297  0.24331250     0.08500
H1069       H  0.97730501  0.90780641  0.28851163     0.26900
H1070       H  0.84892251  0.86994720  0.19833211     0.21700
H1071       H  0.83657710  0.08755966  0.28243949     0.27100
H1072       H  0.88680607  0.99216157  0.15140566     0.15900
C1073       C  0.65138063  0.98542452  0.33556398    -0.11400
C1074       C  0.63524444  0.02343429  0.32375484     0.15100
C1075       C  0.64720890  0.06100282  0.31734891     0.02000
C1076       C  0.67656215  0.05658613  0.31479163    -0.15800
C1077       C  0.69361933  0.01493038  0.31488663    -0.10600
C1078       C  0.68080979  0.98054013  0.33168636     0.08800
C1079       C  0.60872205  0.01944856  0.31090106     0.09800
S1080       S  0.62690634  0.11383056  0.30884088    -0.24900
H1081       H  0.68602255  0.08521194  0.31009041     0.20100
S1082       S  0.69917990  0.92840413  0.34600383    -0.30600
H1083       H  0.64135848  0.95771880  0.34354391     0.10400
C1084       C  0.60899982  0.99307910  0.27869025     0.03600
C1085       C  0.58325376  0.98704791  0.26868117    -0.12900
C1086       C  0.55731250  0.00740148  0.28971906    -0.08600
C1087       C  0.55755340  0.03918639  0.31887755     0.07000
C1088       C  0.58329699  0.04242740  0.33038700    -0.13600
S1089       S  0.64204534  0.96828239  0.24939071    -0.30600
H1090       H  0.58357526  0.96803537  0.24334471     0.11300
S1091       S  0.52748322  0.07834065  0.34323898    -0.27700
H1092       H  0.58369026  0.06417965  0.35402580     0.08500
H1093       H  0.72678895  0.93657512  0.34379709     0.26900
H1094       H  0.63022256  0.94310495  0.22541703     0.21700
H1095       H  0.50600917  0.07506915  0.32181877     0.27100
H1096       H  0.61009680  0.09838456  0.28476219     0.15900
C1097       C  0.96626215  0.96120049  0.54497725    -0.11400
C1098       C  0.95471703  0.99882532  0.52671001     0.15100
C1099       C  0.94054639  0.03613542  0.54944382     0.02000
C1100       C  0.94015052  0.03597204  0.58904819    -0.15800
C1101       C  0.95300704  0.99906239  0.60695925    -0.10600
C1102       C  0.96539221  0.96084402  0.58460424     0.08800
C1103       C  0.95983604  0.99894818  0.48410940     0.09800
S1104       S  0.92309552  0.08529084  0.52964099    -0.24900
H1105       H  0.93037876  0.06524540  0.60601267     0.20100
S1106       S  0.47994277  0.91444865  0.61140207    -0.30600
H1107       H  0.47703306  0.93571696  0.53447011     0.10400
C1108       C  0.47990603  0.02527583  0.47013871     0.03600
C1109       C  0.48513874  0.02207964  0.43033598    -0.12900
C1110       C  0.97204424  0.99385529  0.40314393    -0.08600
C1111       C  0.95407822  0.96762497  0.42301949     0.07000
C1112       C  0.94785212  0.97091902  0.46296397    -0.13600
S1113       S  0.49967996  0.05694775  0.49500514    -0.30600
H1114       H  0.49975157  0.04061917  0.41501878     0.11300
S1115       S  0.94055342  0.92666713  0.39944532    -0.27700
H1116       H  0.93431837  0.95030941  0.47779940     0.08500
H1117       H  0.46368402  0.92318687  0.64763310     0.26900
H1118       H  0.51696297  0.06880193  0.46282298     0.21700
H1119       H  0.96604720  0.91309254  0.37414875     0.27100
H1120       H  0.91736665  0.06504184  0.49710240     0.15900
loop_ 
_geom_bond_atom_site_label_1 
_geom_bond_atom_site_label_2 
_geom_bond_distance 
_geom_bond_site_symmetry_2 
_ccdc_geom_bond_type 
C1            C3   1.540       .  S
C1            C5   1.562       .  S
C1            C4   1.539   1_565  S
C1          C526   1.508   1_565  S
C2            C6   1.548       .  S
C2            C8   1.532       .  S
C2            C7   1.544   1_565  S
C2          C493   1.501       .  S
C3           C11   1.379       .  A
C3          C566   1.382   1_455  A
C4           C15   1.382       .  A
C4          C567   1.384   1_455  A
C5           C19   1.404       .  A
C5          C568   1.387       .  A
C6            C9   1.393       .  A
C6          C563   1.380       .  A
C7           C13   1.387       .  A
C7          C564   1.381       .  A
C8           C16   1.371       .  A
C8          C565   1.387       .  A
C9           N10   1.365       .  A
C9           H22   1.082       .  S
N10         C571   1.355       .  A
N10         C550   1.449       .  S
C11         N570   1.357   1_455  A
C11          H12   1.082       .  S
C13          N14   1.359       .  A
C13          H23   1.082       .  S
N14         C575   1.357       .  A
N14         C478   1.445       .  S
C15         N574   1.358   1_455  A
C15          H21   1.082       .  S
C16         N577   1.347       .  A
C16          H18   1.083       .  S
N17          C19   1.365       .  A
N17         C576   1.347       .  A
N17         C445   1.441       .  S
C19          H20   1.081       .  S
C24          C26   1.540       .  S
C24          C28   1.549       .  S
C24          C27   1.536   1_565  S
C24         C502   1.502       .  S
C25          C29   1.523       .  S
C25          C31   1.545   1_545  S
C25          C30   1.565       .  S
C25         C517   1.505       .  S
C26          C34   1.390       .  A
C26          C29   1.377   1_565  A
C27          C38   1.380       .  A
C27          C30   1.389       .  A
C28          C42   1.388       .  A
C28          C31   1.389       .  A
C29          C32   1.377       .  A
C30          C36   1.398       .  A
C31          C39   1.385       .  A
C32          N33   1.355   1_545  A
C32          H45   1.082       .  S
N33          C34   1.362       .  A
N33         C421   1.441       .  S
C34          H35   1.082       .  S
C36          N37   1.361       .  A
C36          H46   1.080       .  S
N37          C38   1.352       .  A
N37         C397   1.445       .  S
C38          H44   1.082       .  S
C39          N40   1.358       .  A
C39          H41   1.079       .  S
N40          C42   1.355       .  A
N40         C373   1.446       .  S
C42          H43   1.080       .  S
C47          C49   1.547       .  S
C47          C51   1.549       .  S
C47          C50   1.535   1_545  S
C47         C909   1.504   1_545  S
C48          C52   1.552       .  S
C48          C54   1.523       .  S
C48          C53   1.546   1_545  S
C48         C325   1.506       .  S
C49          C57   1.380       .  A
C49          C52   1.398       .  A
C50          C61   1.387       .  A
C50          C53   1.381       .  A
C51          C65   1.390       .  A
C51          C54   1.374       .  A
C52          C55   1.389       .  A
C53          C59   1.383       .  A
C54          C62   1.377       .  A
C55          N56   1.361       .  A
C55          H68   1.082       .  S
N56          C57   1.355       .  A
N56         C541   1.442       .  S
C57         H618   1.082       .  S
H58         C617   1.082   1_455  S
C59          N60   1.354       .  A
C59          H69   1.082       .  S
N60          C61   1.360       .  A
N60         C277   1.443       .  S
C61         H627   1.082       .  S
C62          N63   1.354       .  A
C62          H64   1.082       .  S
N63          C65   1.361       .  A
N63         C310   1.444       .  S
C65         H626   1.082       .  S
H66         C625   1.082   1_455  S
H67         C621   1.082   1_455  S
C70          C72   1.546       .  S
C70          C74   1.550       .  S
C70          C73   1.528   1_545  S
C70         C334   1.499       .  S
C71          C75   1.534       .  S
C71          C77   1.557       .  S
C71          C76   1.555   1_545  S
C71         C358   1.503       .  S
C72          C80   1.396       .  A
C72          C75   1.380       .  A
C73          C84   1.380       .  A
C73          C76   1.374       .  A
C74          C88   1.380       .  A
C74          C77   1.393       .  A
C75          C78   1.376       .  A
C76          C82   1.397       .  A
C77          C85   1.398       .  A
C78          N79   1.354       .  A
C78          H91   1.083       .  S
N79          C80   1.366       .  A
N79         C430   1.449       .  S
C80          H81   1.082       .  S
C82          N83   1.365       .  A
C82          H92   1.082       .  S
N83          C84   1.357       .  A
N83         C229   1.453       .  S
C84          H90   1.082       .  S
C85          N86   1.364       .  A
C85          H87   1.082       .  S
N86          C88   1.351       .  A
N86         C262   1.446       .  S
C88          H89   1.082       .  S
Zr93         O94   2.437       .  S
Zr93         O95   2.464   1_554  S
Zr93         O96   2.615       .  S
Zr93         O99   2.453       .  S
Zr93        O101   2.375   1_554  S
Zr93        O102   2.434       .  S
Zr93        O103   2.410       .  S
Zr93        O104   2.455       .  S
O94         H150   0.990       .  S
O94         H158   0.990       .  S
O95         C115   1.290       .  A
O96         C117   1.320       .  A
O97        Zr107   2.455       .  S
O97         C676   1.291   1_455  A
O98        Zr106   2.617   1_554  S
O98         C117   1.320       .  A
O99         C116   1.292       .  A
O100       Zr108   2.415       .  S
O100        C115   1.281       .  A
O101       Zr106   2.391       .  S
O101       Zr108   2.400       .  S
O102       Zr108   2.365   1_554  S
O102       Zr667   2.436       .  S
O102        H137   0.966   1_554  S
O103       Zr106   2.388   1_554  S
O103       Zr123   2.430       .  S
O103        H140   0.966       .  S
O104       Zr123   2.395       .  S
O104       Zr667   2.438       .  S
Zr105       O130   2.441       .  S
Zr105       O124   2.440   1_556  S
Zr105       O132   2.609   1_556  S
Zr105       O680   2.455   1_455  S
Zr105       O111   2.395       .  S
Zr105       O114   2.371   1_556  S
Zr105       O672   2.457   1_455  S
Zr105       O673   2.434   1_456  S
Zr106       O125   2.434   1_556  S
Zr106       O118   2.434       .  S
Zr106       O119   2.476       .  S
Zr106       O112   2.449       .  S
Zr106       O113   2.441   1_556  S
Zr107       O109   2.436       .  S
Zr107       O131   2.436   1_554  S
Zr107       O133   2.589       .  S
Zr107       O111   2.385   1_554  S
Zr107       O114   2.379       .  S
Zr107       O662   2.434   1_454  S
Zr107       O664   2.435   1_455  S
Zr108       O110   2.437       .  S
Zr108       O694   2.437       .  S
Zr108       O695   2.435       .  S
Zr108       O112   2.383       .  S
Zr108       O671   2.410       .  S
O109        H146   0.990       .  S
O110        H141   0.990       .  S
O110        H155   0.990       .  S
O111       Zr668   2.415   1_455  S
O112       Zr665   2.454       .  S
O112        H138   0.967       .  S
O113       Zr123   2.360       .  S
O113       Zr665   2.431   1_554  S
O114       Zr683   2.394   1_455  S
O114        H139   0.965       .  S
C115        C301   1.489       .  S
C116        O657   1.291       .  A
C116        C469   1.496       .  S
C117        C202   1.647       .  S
O118        H154   0.990       .  S
O119        C121   1.296       .  A
O120       Zr665   2.440       .  S
O120        C121   1.290       .  A
C121        C286   1.497       .  S
O122       Zr123   2.435       .  S
O122        H151   0.990       .  S
Zr123       O126   2.435       .  S
Zr123       O127   2.438       .  S
Zr123       O128   2.459       .  S
Zr123       O674   2.393       .  S
O124        C689   1.285       .  A
O125        H142   0.990       .  S
O125        H157   0.990       .  S
O126        H143   0.990       .  S
O127        H147   0.990       .  S
O127        H156   0.990       .  S
O128        C129   1.289       .  A
C129        O684   1.286       .  A
C129        C454   1.494       .  S
O130        H149   0.990       .  S
O130        H153   0.990       .  S
O131        H145   0.990   1_556  S
O131        H152   0.989       .  S
O132        C136   1.319       .  A
O133        C136   1.314       .  A
O134       Zr668   2.437   1_455  S
O134        H144   0.990       .  S
O135       Zr668   2.436   1_455  S
O135        H148   0.990       .  S
C136        C183   1.631       .  S
Zr159       O160   2.438       .  S
Zr159       O161   2.458   1_554  S
Zr159       O162   2.613       .  S
Zr159       O165   2.460       .  S
Zr159       O167   2.371   1_554  S
Zr159       O168   2.436   1_554  S
Zr159       O169   2.399       .  S
Zr159       O170   2.448       .  S
O160        H216   0.990       .  S
O160        H224   0.990       .  S
O161        C181   1.289       .  A
O162        C183   1.320       .  A
O163       Zr173   2.472       .  S
O163        C182   1.296       .  A
O164       Zr172   2.588   1_554  S
O164        C183   1.314       .  A
O165        C182   1.293       .  A
O166       Zr174   2.444       .  S
O166        C181   1.286       .  A
O167       Zr172   2.389       .  S
O167       Zr174   2.394       .  S
O168       Zr173   2.446   1_556  S
O168       Zr174   2.364       .  S
O168        H203   0.966       .  S
O169       Zr172   2.390   1_554  S
O169       Zr189   2.417       .  S
O169        H206   0.966       .  S
O170       Zr173   2.438       .  S
O170       Zr189   2.377       .  S
Zr171       O196   2.445   1_554  S
Zr171       O190   2.458       .  S
Zr171       O198   2.625       .  S
Zr171       O186   2.477   1_554  S
Zr171       O177   2.404   1_554  S
Zr171       O178   2.458   1_554  S
Zr171       O179   2.429       .  S
Zr171       O180   2.382       .  S
Zr172       O191   2.437   1_556  S
Zr172       O184   2.433       .  S
Zr172       O185   2.457       .  S
Zr172       O178   2.446       .  S
Zr172       O179   2.431   1_556  S
Zr173       O175   2.436       .  S
Zr173       O197   2.435   1_554  S
Zr173       O199   2.610       .  S
Zr173       O177   2.389   1_554  S
Zr173       O180   2.393       .  S
Zr174       O200   2.434       .  S
Zr174       O201   2.436       .  S
Zr174       O176   2.437       .  S
Zr174       O177   2.421       .  S
Zr174       O178   2.389       .  S
O175        H212   0.990       .  S
O176        H207   0.990       .  S
O176        H221   0.990       .  S
O178        H204   0.965       .  S
O179       Zr189   2.368       .  S
O180       Zr189   2.403       .  S
O180        H205   0.966       .  S
C181        C253   1.501       .  S
C182        C406   1.509       .  S
O184        H220   0.990       .  S
O185        C187   1.292       .  A
O186        C187   1.296       .  A
C187        C238   1.503       .  S
O188       Zr189   2.436       .  S
O188        H217   0.990       .  S
Zr189       O192   2.436       .  S
Zr189       O193   2.439       .  S
Zr189       O194   2.421       .  S
O190        C195   1.289       .  A
O191        H208   0.990       .  S
O191        H223   0.990       .  S
O192        H209   0.990       .  S
O193        H213   0.990       .  S
O193        H222   0.990       .  S
O194        C195   1.282       .  A
C195        C382   1.484       .  S
O196        H215   0.989       .  S
O196        H219   0.990       .  S
O197        H211   0.990       .  S
O197        H218   0.990   1_556  S
O198        C202   1.322       .  A
O199        C202   1.319       .  A
O200        H210   0.990       .  S
O201        H214   0.990       .  S
C225        C226   1.404       .  A
C225        C230   1.406       .  A
C225        H235   1.084       .  S
C226        C227   1.417       .  A
C226        C231   1.499       .  S
C227        C228   1.410       .  A
C227        S232   1.804       .  S
C228        C229   1.407       .  A
C228        H233   1.083       .  S
C229        C230   1.419       .  A
C230        S234   1.802       .  S
C231        C236   1.411       .  A
C231        C240   1.403       .  A
S232        H248   1.404       .  S
S234        H245   1.407       .  S
C236        C237   1.412       .  A
C236        S241   1.805       .  S
C237        C238   1.410       .  A
C237        H242   1.082       .  S
C238        C239   1.421       .  A
C239        C240   1.407       .  A
C239        S243   1.802       .  S
C240        H244   1.084       .  S
S241        H246   1.406       .  S
S243        H247   1.403   1_556  S
C249        C250   1.403       .  A
C249        C254   1.404       .  A
C249        H259   1.084       .  S
C250        C251   1.417       .  A
C250        C255   1.497       .  S
C251        C252   1.411       .  A
C251        S256   1.806       .  S
C252        C253   1.409       .  A
C252        H257   1.084       .  S
C253        C254   1.419       .  A
C254        S258   1.802       .  S
C255        C260   1.414       .  A
C255        C264   1.402       .  A
S256        H272   1.403       .  S
S258        H269   1.407       .  S
C260        C261   1.414       .  A
C260        S265   1.805       .  S
C261        C262   1.406       .  A
C261        H266   1.082       .  S
C262        C263   1.414       .  A
C263        C264   1.404       .  A
C263        S267   1.802       .  S
C264        H268   1.084       .  S
S265        H270   1.407       .  S
S267        H271   1.406       .  S
C273        C274   1.402       .  A
C273        C278   1.402       .  A
C273        H283   1.084       .  S
C274        C275   1.416       .  A
C274        C279   1.489       .  S
C275        C276   1.405       .  A
C275        S840   1.803       .  S
C276        C277   1.402       .  A
C276        H841   1.083       .  S
C277        C278   1.417       .  A
C278        S282   1.803       .  S
C279        C284   1.409       .  A
C279        C288   1.401       .  A
S280        C835   1.804   1_455  S
S280        H296   1.405       .  S
H281        C836   1.083   1_455  S
S282        H293   1.407       .  S
C284        C285   1.409       .  A
C284        S289   1.806       .  S
C285        C286   1.411       .  A
C285        H290   1.083       .  S
C286        C287   1.419       .  A
C287        C288   1.403       .  A
C287        S291   1.800       .  S
C288        H292   1.084       .  S
S289        H294   1.407       .  S
S291        H295   1.408       .  S
C297        C298   1.409       .  A
C297        C302   1.407       .  A
C297        H307   1.084       .  S
C298        C299   1.415       .  A
C298        C303   1.497       .  S
C299        C300   1.399       .  A
C299        S304   1.805       .  S
C300        C301   1.407       .  A
C300        H305   1.084       .  S
C301        C302   1.415       .  A
C302        S306   1.803       .  S
C303        C308   1.416       .  A
C303        C312   1.406       .  A
S304        H320   1.406       .  S
S306        H317   1.407       .  S
C308        C309   1.406       .  A
C308        S873   1.807       .  S
C309        C310   1.403       .  A
C309        H874   1.082       .  S
C310        C311   1.415       .  A
C311        C312   1.402       .  A
C311        S315   1.803       .  S
C312        H316   1.084       .  S
S313        C868   1.807   1_455  S
S313        H318   1.407       .  S
H314        C869   1.082   1_455  S
S315        H319   1.407       .  S
C321        C322   1.400       .  A
C321        C326   1.389       .  A
C321        H331   1.085       .  S
C322        C323   1.395       .  A
C322        C327   1.437       .  S
C323        C324   1.380       .  A
C323        S328   1.806   1_545  S
C324        C325   1.412       .  A
C324        H329   1.079   1_545  S
C325        C326   1.418       .  A
C326        S330   1.807       .  S
C327        C332   1.393       .  A
C327        C336   1.397   1_545  A
S328        H344   1.401       .  S
S330        H341   1.399       .  S
C332        C333   1.386       .  A
C332        S337   1.806       .  S
C333        C334   1.411       .  A
C333        H338   1.078       .  S
C334        C335   1.418   1_545  A
C335        C336   1.384       .  A
C335        S339   1.808       .  S
C336        H340   1.085       .  S
S337        H342   1.407       .  S
S339        H343   1.399       .  S
C345        C346   1.397       .  A
C345        C350   1.396       .  A
C345        H355   1.083       .  S
C346        C347   1.406   1_565  A
C346        C351   1.445       .  S
C347        C348   1.374       .  A
C347        S352   1.808       .  S
C348        C349   1.402   1_545  A
C348        H353   1.082       .  S
C349        C607   1.501   1_465  S
C349        C350   1.415       .  A
C350        S354   1.805       .  S
C351        C356   1.398       .  A
C351        C360   1.398   1_565  A
S352        H368   1.405       .  S
S354        H925   1.407       .  S
C356        C357   1.384       .  A
C356        S361   1.808       .  S
C357        C358   1.410   1_565  A
C357        H362   1.080       .  S
C358        C359   1.420       .  A
C359        C360   1.390       .  A
C359        S363   1.804       .  S
C360        H364   1.084       .  S
S361        H366   1.407       .  S
S363        H367   1.401       .  S
H365        S914   1.407       .  S
C369        C370   1.404       .  A
C369        C374   1.403       .  A
C369        H379   1.084       .  S
C370        C371   1.413       .  A
C370        C375   1.490       .  S
C371        C372   1.402       .  A
C371        S376   1.804       .  S
C372        C373   1.406       .  A
C372        H377   1.083       .  S
C373        C374   1.416       .  A
C374        S378   1.800       .  S
C375        C380   1.414       .  A
C375        C384   1.401       .  A
S376        H392   1.406       .  S
S378        H389   1.407       .  S
C380        C381   1.409       .  A
C380        S385   1.805       .  S
C381        C382   1.404       .  A
C381        H386   1.083       .  S
C382        C383   1.418       .  A
C383        C384   1.401       .  A
C383        S387   1.806       .  S
C384        H388   1.084       .  S
S385        H390   1.407       .  S
S387        H391   1.405       .  S
C393        C394   1.408       .  A
C393        C398   1.406       .  A
C393        H403   1.084       .  S
C394        C395   1.419       .  A
C394        C399   1.502       .  S
C395        C396   1.407       .  A
C395        S400   1.803       .  S
C396        C397   1.403       .  A
C396        H401   1.083       .  S
C397        C398   1.412       .  A
C398        S402   1.802       .  S
C399        C404   1.414       .  A
C399        C408   1.403       .  A
S400        H416   1.405       .  S
S402        H413   1.407       .  S
C404        C405   1.414       .  A
C404        S409   1.807       .  S
C405        C406   1.412       .  A
C405        H410   1.082       .  S
C406        C407   1.421       .  A
C407        C408   1.409       .  A
C407        S411   1.809       .  S
C408        H412   1.083       .  S
S409        H414   1.406       .  S
S411        H415   1.407       .  S
C417        C418   1.405   1_565  A
C417        C422   1.403       .  A
C417        H427   1.084       .  S
C418        C419   1.418       .  A
C418        C423   1.497       .  S
C419        C420   1.407       .  A
C419        S424   1.803       .  S
C420        C421   1.402   1_545  A
C420        H425   1.083       .  S
C421        C422   1.411       .  A
C422        S426   1.802       .  S
C423        C428   1.413       .  A
C423        C432   1.406   1_545  A
S424        H440   1.405       .  S
S426        H437   1.406       .  S
C428        C429   1.408       .  A
C428        S433   1.807       .  S
C429        C430   1.407       .  A
C429        H434   1.082       .  S
C430        C431   1.414   1_545  A
C431        C432   1.408       .  A
C431        S435   1.800       .  S
C432        H436   1.084       .  S
S433        H438   1.407       .  S
S435        H439   1.406       .  S
C441        C442   1.403       .  A
C441        C446   1.403       .  A
C441        H451   1.084       .  S
C442       C1003   1.417       .  A
C442        C447   1.493       .  S
C443        C444   1.410       .  A
C443       C1002   1.419       .  A
C443        S448   1.803       .  S
C444       C1005   1.404       .  A
C444        H449   1.083       .  S
C445        C446   1.412       .  A
C445       C1004   1.404       .  A
C446        S450   1.801       .  S
C447        C452   1.412       .  A
C447       C1016   1.404   1_455  A
S448        H464   1.405       .  S
S450        H461   1.405       .  S
C452        C453   1.412       .  A
C452        S457   1.806       .  S
C453       C1014   1.408       .  A
C453        H458   1.083       .  S
C454        C455   1.414       .  A
C454       C1013   1.408       .  A
C455        C456   1.405       .  A
C455        S459   1.803       .  S
C456       C1007   1.406       .  A
C456        H460   1.084       .  S
S457        H462   1.407       .  S
S459        H463   1.408       .  S
C465        C470   1.402       .  A
C465       C1026   1.401   1_455  A
C465        H475   1.084       .  S
C466        C467   1.414       .  A
C466       C1025   1.402       .  A
C466        C471   1.488       .  S
C467        C468   1.404       .  A
C467        S472   1.806       .  S
C468        C469   1.407       .  A
C468        H473   1.084       .  S
C469       C1030   1.419       .  A
C470       C1029   1.419   1_455  A
C470        S474   1.800       .  S
C471        C480   1.405       .  A
C471       C1036   1.408       .  A
S472        H488   1.402       .  S
S474        H485   1.407       .  S
C476        C477   1.404       .  A
C476       C1031   1.409       .  A
C476        S481   1.806       .  S
C477       C1038   1.405       .  A
C477        H482   1.082       .  S
C478        C479   1.415       .  A
C478       C1037   1.405       .  A
C479        C480   1.406       .  A
C479        S483   1.802       .  S
C480        H484   1.084       .  S
S481        H486   1.407       .  S
S483        H487   1.406       .  S
C489        C490   1.394       .  A
C489        C494   1.380       .  A
C489        H499   1.085       .  S
C490        C491   1.396       .  A
C490        C495   1.443       .  S
C491        C492   1.383   1_565  A
C491        S496   1.803   1_565  S
C492        C493   1.412   1_545  A
C492        H497   1.077       .  S
C493        C494   1.426       .  A
C494        S498   1.809       .  S
C495        C500   1.397       .  A
C495        C504   1.397   1_565  A
S496        H512   1.407   1_545  S
S498        H509   1.395       .  S
C500        C501   1.386       .  A
C500        S505   1.808       .  S
C501        C502   1.405       .  A
C501        H506   1.073       .  S
C502        C503   1.418   1_565  A
C503        C504   1.384       .  A
C503        S507   1.814       .  S
C504        H508   1.084       .  S
S505        H510   1.407       .  S
S507        H511   1.407       .  S
C513        C514   1.396   1_565  A
C513        C518   1.388       .  A
C513        H523   1.085       .  S
C514        C515   1.406       .  A
C514        C519   1.451       .  S
C515        C516   1.384       .  A
C515        S520   1.804       .  S
C516        C517   1.400       .  A
C516        H521   1.078       .  S
C517        C518   1.424   1_545  A
C518        S522   1.813       .  S
C519        C524   1.406   1_545  A
C519        C528   1.387       .  A
S520        H536   1.406       .  S
S522        H533   1.393       .  S
C524        C525   1.388       .  A
C524        S529   1.809       .  S
C525        C526   1.400   1_565  A
C525        H530   1.074       .  S
C526        C527   1.434       .  A
C527        C528   1.386       .  A
C527        S531   1.818       .  S
C528        H532   1.085       .  S
S529        H534   1.407       .  S
S531        H535   1.392       .  S
C537        C538   1.403   1_565  A
C537        C542   1.402       .  A
C537       H1107   1.084       .  S
C538        C539   1.417       .  A
C538        C543   1.492       .  S
C539        C540   1.406       .  A
C539        S544   1.803       .  S
C540        C541   1.403       .  A
C540        H545   1.083       .  S
C541        C542   1.413   1_545  A
C542       S1106   1.801       .  S
C543        C552   1.406   1_545  A
C543       C1108   1.410       .  A
S544        H560   1.406       .  S
S546       C1102   1.802       .  S
S546        H557   1.405       .  S
H547       C1097   1.084       .  S
C548        C549   1.407       .  A
C548       C1103   1.413   1_545  A
C548        S553   1.806       .  S
C549       C1110   1.408   1_545  A
C549        H554   1.082       .  S
C550        C551   1.415       .  A
C550       C1109   1.407   1_565  A
C551        C552   1.407       .  A
C551        S555   1.798       .  S
C552        H556   1.084       .  S
S553        H558   1.407   1_655  S
S555        H559   1.407       .  S
C561        C563   1.535       .  S
C561        C565   1.563       .  S
C561        C564   1.538   1_565  S
C561       C1086   1.502   1_565  S
C562        C566   1.550       .  S
C562        C568   1.530   1_655  S
C562        C567   1.542   1_565  S
C562       C1053   1.506       .  S
C563        C571   1.375       .  A
C564        C575   1.383       .  A
C565        C579   1.406       .  A
C566        C569   1.395       .  A
C567        C573   1.384       .  A
C568        C576   1.371       .  A
C569        N570   1.366       .  A
C569        H582   1.082       .  S
N570       C1110   1.454       .  S
C571        H572   1.082       .  S
C573        N574   1.358       .  A
C573        H583   1.082       .  S
N574       C1038   1.442       .  S
C575        H581   1.082       .  S
C576        H578   1.083   1_455  S
N577        C579   1.368       .  A
N577       C1005   1.445       .  S
C579        H580   1.081       .  S
C584        C586   1.544       .  S
C584        C588   1.552       .  S
C584        C587   1.538   1_565  S
C584       C1062   1.506       .  S
C585        C589   1.521       .  S
C585        C591   1.548   1_545  S
C585        C590   1.564       .  S
C585       C1077   1.502       .  S
C586        C594   1.391       .  A
C586        C589   1.376   1_565  A
C587        C598   1.380       .  A
C587        C590   1.389       .  A
C588        C602   1.390       .  A
C588        C591   1.390       .  A
C589        C592   1.377       .  A
C590        C596   1.399       .  A
C591        C599   1.390       .  A
C592        N593   1.354       .  A
C592        H605   1.083       .  S
N593        C594   1.363   1_545  A
N593        C981   1.441       .  S
C594        H595   1.082       .  S
C596        N597   1.363       .  A
C596        H606   1.080       .  S
N597        C598   1.353       .  A
N597        C957   1.447       .  S
C598        H604   1.082       .  S
C599        N600   1.358       .  A
C599        H601   1.079       .  S
N600        C602   1.354       .  A
N600        C933   1.450       .  S
C602        H603   1.079       .  S
C607        C609   1.549       .  S
C607        C611   1.550       .  S
C607        C610   1.536   1_545  S
C608        C612   1.555       .  S
C608        C614   1.524       .  S
C608        C613   1.547   1_545  S
C608        C885   1.503       .  S
C609        C617   1.383       .  A
C609        C612   1.397       .  A
C610        C621   1.389       .  A
C610        C613   1.379       .  A
C611        C625   1.390       .  A
C611        C614   1.372       .  A
C612        C615   1.391       .  A
C613        C619   1.384       .  A
C614        C622   1.379       .  A
C615        N616   1.362       .  A
C615        H628   1.082       .  S
N616        C617   1.357       .  A
N616       C1101   1.446   1_545  S
C619        N620   1.355       .  A
C619        H629   1.082       .  S
N620        C621   1.360       .  A
N620        C837   1.445       .  S
C622        N623   1.355       .  A
C622        H624   1.082       .  S
N623        C625   1.360       .  A
N623        C870   1.445       .  S
C630        C632   1.544       .  S
C630        C634   1.551       .  S
C630        C633   1.526   1_545  S
C630        C894   1.501       .  S
C631        C635   1.533       .  S
C631        C637   1.555       .  S
C631        C636   1.551   1_545  S
C631        C918   1.505       .  S
C632        C640   1.393       .  A
C632        C635   1.381       .  A
C633        C644   1.377       .  A
C633        C636   1.375       .  A
C634        C648   1.381       .  A
C634        C637   1.393       .  A
C635        C638   1.375       .  A
C636        C642   1.393       .  A
C637        C645   1.396       .  A
C638        N639   1.354       .  A
C638        H651   1.083       .  S
N639        C640   1.364       .  A
N639        C990   1.445       .  S
C640        H641   1.082       .  S
C642        N643   1.363       .  A
C642        H652   1.082       .  S
N643        C644   1.356       .  A
N643        C789   1.448       .  S
C644        H650   1.082       .  S
C645        N646   1.363       .  A
C645        H647   1.082       .  S
N646        C648   1.352       .  A
N646        C822   1.445       .  S
C648        H649   1.082       .  S
Zr653       O654   2.438       .  S
Zr653       O655   2.470   1_554  S
Zr653       O656   2.616       .  S
Zr653       O659   2.446       .  S
Zr653       O661   2.374   1_554  S
Zr653       O662   2.434   1_554  S
Zr653       O663   2.408       .  S
Zr653       O664   2.455       .  S
O654        H710   0.990       .  S
O654        H718   0.990       .  S
O655        C675   1.291       .  A
O656        C677   1.320       .  A
O657       Zr667   2.452       .  S
O658       Zr666   2.614       .  S
O658        C677   1.320   1_556  A
O659        C676   1.291       .  A
O660       Zr668   2.405       .  S
O660        C675   1.279       .  A
O661       Zr666   2.393       .  S
O661       Zr668   2.402       .  S
O662       Zr668   2.369       .  S
O662        H697   0.965       .  S
O663       Zr666   2.385   1_554  S
O663       Zr683   2.423       .  S
O663        H700   0.966       .  S
O664       Zr683   2.388       .  S
Zr665       O690   2.439       .  S
Zr665       O684   2.442   1_556  S
Zr665       O692   2.595   1_556  S
Zr665       O671   2.390       .  S
Zr665       O674   2.371   1_556  S
Zr666       O685   2.434   1_556  S
Zr666       O678   2.434       .  S
Zr666       O679   2.471       .  S
Zr666       O672   2.451       .  S
Zr666       O673   2.442   1_556  S
Zr667       O669   2.435       .  S
Zr667       O691   2.436   1_554  S
Zr667       O693   2.591       .  S
Zr667       O671   2.381   1_554  S
Zr667       O674   2.383       .  S
Zr668       O670   2.439       .  S
Zr668       O672   2.377       .  S
O669        H706   0.990       .  S
O670        H701   0.990       .  S
O670        H715   0.990       .  S
O672        H698   0.966       .  S
O673       Zr683   2.363       .  S
O674        H699   0.965       .  S
C675        C861   1.487       .  S
C676       C1029   1.495       .  S
C677        C762   1.646       .  S
O678        H714   0.990       .  S
O679        C681   1.295       .  A
O680        C681   1.293       .  A
C681        C846   1.497       .  S
O682       Zr683   2.436       .  S
O682        H711   0.990       .  S
Zr683       O686   2.435       .  S
Zr683       O687   2.438       .  S
Zr683       O688   2.448       .  S
O685        H702   0.990       .  S
O685        H717   0.990       .  S
O686        H703   0.990       .  S
O687        H707   0.990       .  S
O687        H716   0.989   1_655  S
O688        C689   1.287   1_655  A
C689       C1014   1.488       .  S
O690        H709   0.990       .  S
O690        H713   0.990       .  S
O691        H705   0.990   1_556  S
O691        H712   0.989       .  S
O692        C696   1.317       .  A
O693        C696   1.315       .  A
O694        H704   0.990       .  S
O695        H708   0.990       .  S
C696        C743   1.625       .  S
Zr719       O720   2.438       .  S
Zr719       O721   2.458   1_554  S
Zr719       O722   2.604       .  S
Zr719       O725   2.447       .  S
Zr719       O727   2.373   1_554  S
Zr719       O728   2.437   1_554  S
Zr719       O729   2.396       .  S
Zr719       O730   2.450       .  S
O720        H776   0.990       .  S
O720        H784   0.990       .  S
O721        C741   1.289       .  A
O722        C743   1.318       .  A
O723       Zr733   2.475       .  S
O723        C742   1.297       .  A
O724       Zr732   2.585   1_554  S
O724        C743   1.314       .  A
O725        C742   1.290       .  A
O726       Zr734   2.448       .  S
O726        C741   1.287       .  A
O727       Zr732   2.390       .  S
O727       Zr734   2.394       .  S
O728       Zr733   2.444   1_556  S
O728       Zr734   2.361       .  S
O728        H763   0.966       .  S
O729       Zr732   2.388   1_554  S
O729       Zr749   2.416       .  S
O729        H766   0.966       .  S
O730       Zr733   2.436       .  S
O730       Zr749   2.381       .  S
Zr731       O756   2.438   1_554  S
Zr731       O750   2.467       .  S
Zr731       O758   2.617       .  S
Zr731       O746   2.474   1_554  S
Zr731       O737   2.407   1_554  S
Zr731       O738   2.463   1_554  S
Zr731       O739   2.424       .  S
Zr731       O740   2.382       .  S
Zr732       O751   2.437   1_556  S
Zr732       O744   2.434       .  S
Zr732       O745   2.451       .  S
Zr732       O738   2.448       .  S
Zr732       O739   2.430   1_556  S
Zr733       O735   2.435       .  S
Zr733       O757   2.434   1_554  S
Zr733       O759   2.611       .  S
Zr733       O737   2.384   1_554  S
Zr733       O740   2.393       .  S
Zr734       O760   2.434       .  S
Zr734       O761   2.435       .  S
Zr734       O736   2.438       .  S
Zr734       O737   2.420       .  S
Zr734       O738   2.394       .  S
O735        H772   0.990       .  S
O736        H767   0.990       .  S
O736        H781   0.989       .  S
O738        H764   0.966       .  S
O739       Zr749   2.365       .  S
O740       Zr749   2.402       .  S
O740        H765   0.965       .  S
C741        C813   1.503       .  S
C742        C966   1.508       .  S
O744        H780   0.990       .  S
O745        C747   1.290       .  A
O746        C747   1.296       .  A
C747        C798   1.502       .  S
O748       Zr749   2.436       .  S
O748        H777   0.990       .  S
Zr749       O752   2.436       .  S
Zr749       O753   2.437       .  S
Zr749       O754   2.426       .  S
O750        C755   1.291       .  A
O751        H768   0.990       .  S
O751        H783   0.990       .  S
O752        H769   0.990       .  S
O753        H773   0.990       .  S
O753        H782   0.990       .  S
O754        C755   1.283       .  A
C755        C942   1.491       .  S
O756        H775   0.990       .  S
O756        H779   0.990       .  S
O757        H771   0.990       .  S
O757        H778   0.990   1_556  S
O758        C762   1.321       .  A
O759        C762   1.319       .  A
O760        H770   0.990       .  S
O761        H774   0.990       .  S
C785        C786   1.403       .  A
C785        C790   1.403       .  A
C785        H795   1.084       .  S
C786        C787   1.415       .  A
C786        C791   1.493       .  S
C787        C788   1.407       .  A
C787        S792   1.803       .  S
C788        C789   1.406       .  A
C788        H793   1.083       .  S
C789        C790   1.417       .  A
C790        S794   1.803       .  S
C791        C796   1.410       .  A
C791        C800   1.401       .  A
S792        H808   1.403       .  S
S794        H805   1.407       .  S
C796        C797   1.410       .  A
C796        S801   1.806       .  S
C797        C798   1.410       .  A
C797        H802   1.082       .  S
C798        C799   1.423       .  A
C799        C800   1.405       .  A
C799        S803   1.802       .  S
C800        H804   1.084       .  S
S801        H806   1.407       .  S
S803        H807   1.405   1_556  S
C809        C810   1.401       .  A
C809        C814   1.403       .  A
C809        H819   1.084       .  S
C810        C811   1.416       .  A
C810        C815   1.497       .  S
C811        C812   1.413       .  A
C811        S816   1.804       .  S
C812        C813   1.411       .  A
C812        H817   1.084       .  S
C813        C814   1.420       .  A
C814        S818   1.801       .  S
C815        C820   1.414       .  A
C815        C824   1.403       .  A
S816        H832   1.405       .  S
S818        H829   1.408       .  S
C820        C821   1.413       .  A
C820        S825   1.804       .  S
C821        C822   1.404       .  A
C821        H826   1.082       .  S
C822        C823   1.414       .  A
C823        C824   1.404       .  A
C823        S827   1.802       .  S
C824        H828   1.084       .  S
S825        H830   1.407       .  S
S827        H831   1.406       .  S
C833        C834   1.404       .  A
C833        C838   1.403       .  A
C833        H843   1.084       .  S
C834        C835   1.419       .  A
C834        C839   1.497       .  S
C835        C836   1.408       .  A
C836        C837   1.403       .  A
C837        C838   1.415       .  A
C838        S842   1.802       .  S
C839        C844   1.413       .  A
C839        C848   1.404       .  A
S840        H856   1.405       .  S
S842        H853   1.407       .  S
C844        C845   1.409       .  A
C844        S849   1.806   1_655  S
C845        C846   1.408       .  A
C845        H850   1.083       .  S
C846        C847   1.419       .  A
C847        C848   1.405       .  A
C847        S851   1.801       .  S
C848        H852   1.084       .  S
S849        H854   1.407       .  S
S851        H855   1.407       .  S
C857        C858   1.409       .  A
C857        C862   1.407       .  A
C857        H867   1.084       .  S
C858        C859   1.414       .  A
C858        C863   1.494       .  S
C859        C860   1.398       .  A
C859        S864   1.805       .  S
C860        C861   1.407       .  A
C860        H865   1.084       .  S
C861        C862   1.415       .  A
C862        S866   1.803       .  S
C863        C868   1.414       .  A
C863        C872   1.405       .  A
S864        H880   1.406       .  S
S866        H877   1.407       .  S
C868        C869   1.406       .  A
C869        C870   1.405       .  A
C870        C871   1.415       .  A
C871        C872   1.402       .  A
C871        S875   1.802       .  S
C872        H876   1.084       .  S
S873        H878   1.407       .  S
S875        H879   1.407       .  S
C881        C882   1.400       .  A
C881        C886   1.387       .  A
C881        H891   1.085       .  S
C882        C883   1.396       .  A
C882        C887   1.436       .  S
C883        C884   1.380       .  A
C883        S888   1.808   1_545  S
C884        C885   1.412       .  A
C884        H889   1.080   1_545  S
C885        C886   1.417       .  A
C886        S890   1.807       .  S
C887        C892   1.392       .  A
C887        C896   1.397   1_545  A
S888        H904   1.402       .  S
S890        H901   1.399       .  S
C892        C893   1.386       .  A
C892        S897   1.805       .  S
C893        C894   1.410       .  A
C893        H898   1.079       .  S
C894        C895   1.418   1_545  A
C895        C896   1.384       .  A
C895        S899   1.808       .  S
C896        H900   1.085       .  S
S897        H902   1.407       .  S
S899        H903   1.399       .  S
C905        C906   1.397       .  A
C905        C910   1.396       .  A
C905        H915   1.083       .  S
C906        C907   1.406   1_565  A
C906        C911   1.448       .  S
C907        C908   1.377       .  A
C907        S912   1.807       .  S
C908        C909   1.401   1_545  A
C908        H913   1.082       .  S
C909        C910   1.415       .  A
C910        S914   1.806       .  S
C911        C916   1.399       .  A
C911        C920   1.398   1_565  A
S912        H928   1.405       .  S
C916        C917   1.384       .  A
C916        S921   1.808       .  S
C917        C918   1.409   1_565  A
C917        H922   1.081       .  S
C918        C919   1.419       .  A
C919        C920   1.391       .  A
C919        S923   1.805       .  S
C920        H924   1.084       .  S
S921        H926   1.407       .  S
S923        H927   1.401       .  S
C929        C930   1.407       .  A
C929        C934   1.407       .  A
C929        H939   1.084       .  S
C930        C931   1.415       .  A
C930        C935   1.498       .  S
C931        C932   1.404       .  A
C931        S936   1.804       .  S
C932        C933   1.407       .  A
C932        H937   1.083       .  S
C933        C934   1.416       .  A
C934        S938   1.800       .  S
C935        C940   1.417       .  A
C935        C944   1.401       .  A
S936        H952   1.405       .  S
S938        H949   1.406       .  S
C940        C941   1.413       .  A
C940        S945   1.806       .  S
C941        C942   1.405       .  A
C941        H946   1.083       .  S
C942        C943   1.418       .  A
C943        C944   1.402       .  A
C943        S947   1.805       .  S
C944        H948   1.084       .  S
S945        H950   1.406       .  S
S947        H951   1.406       .  S
C953        C954   1.407       .  A
C953        C958   1.407       .  A
C953        H963   1.084       .  S
C954        C955   1.419       .  A
C954        C959   1.501       .  S
C955        C956   1.408       .  A
C955        S960   1.805       .  S
C956        C957   1.404       .  A
C956        H961   1.083       .  S
C957        C958   1.413       .  A
C958        S962   1.802       .  S
C959        C964   1.412       .  A
C959        C968   1.403       .  A
S960        H976   1.404       .  S
S962        H973   1.406       .  S
C964        C965   1.410       .  A
C964        S969   1.805       .  S
C965        C966   1.411       .  A
C965        H970   1.082       .  S
C966        C967   1.424       .  A
C967        C968   1.410       .  A
C967        S971   1.811       .  S
C968        H972   1.083       .  S
S969        H974   1.408       .  S
S971        H975   1.407       .  S
C977        C978   1.405   1_565  A
C977        C982   1.402       .  A
C977        H987   1.084       .  S
C978        C979   1.418       .  A
C978        C983   1.495       .  S
C979        C980   1.408       .  A
C979        S984   1.805       .  S
C980        C981   1.403       .  A
C980        H985   1.083       .  S
C981        C982   1.412   1_545  A
C982        S986   1.802       .  S
C983        C988   1.413       .  A
C983        C992   1.407   1_545  A
S984       H1000   1.405       .  S
S986        H997   1.405       .  S
C988        C989   1.406       .  A
C988        S993   1.807       .  S
C989        C990   1.405       .  A
C989        H994   1.082       .  S
C990        C991   1.413   1_545  A
C991        C992   1.406       .  A
C991        S995   1.800       .  S
C992        H996   1.084       .  S
S993        H998   1.407       .  S
S995        H999   1.406       .  S
C1001      C1002   1.404       .  A
C1001      C1006   1.404       .  A
C1001      H1011   1.084       .  S
C1002      C1007   1.500       .  S
C1003      C1004   1.408       .  A
C1003      S1008   1.805       .  S
C1004      H1009   1.083       .  S
C1005      C1006   1.415       .  A
C1006      S1010   1.801       .  S
C1007      C1012   1.414       .  A
S1008      H1024   1.405       .  S
S1010      H1021   1.406       .  S
C1012      C1013   1.413       .  A
C1012      S1017   1.805       .  S
C1013      H1018   1.083       .  S
C1014      C1015   1.414   1_455  A
C1015      C1016   1.402       .  A
C1015      S1019   1.803       .  S
C1016      H1020   1.084       .  S
S1017      H1022   1.407       .  S
S1019      H1023   1.407       .  S
C1025      C1030   1.404       .  A
C1025      H1035   1.084       .  S
C1026      C1027   1.412       .  A
C1026      C1031   1.484       .  S
C1027      C1028   1.403       .  A
C1027      S1032   1.806       .  S
C1028      C1029   1.409       .  A
C1028      H1033   1.084       .  S
C1030      S1034   1.801       .  S
C1031      C1040   1.403   1_655  A
S1032      H1048   1.404       .  S
S1034      H1045   1.408       .  S
C1036      C1037   1.405       .  A
C1036      S1041   1.806       .  S
C1037      H1042   1.082       .  S
C1038      C1039   1.414   1_655  A
C1039      C1040   1.403       .  A
C1039      S1043   1.801       .  S
C1040      H1044   1.084       .  S
S1041      H1046   1.407       .  S
S1043      H1047   1.406   1_455  S
C1049      C1050   1.394       .  A
C1049      C1054   1.382       .  A
C1049      H1059   1.085       .  S
C1050      C1051   1.396       .  A
C1050      C1055   1.446       .  S
C1051      C1052   1.387       .  A
C1051      S1056   1.803   1_565  S
C1052      C1053   1.413       .  A
C1052      H1057   1.078   1_565  S
C1053      C1054   1.425       .  A
C1054      S1058   1.808       .  S
C1055      C1060   1.396       .  A
C1055      C1064   1.397   1_565  A
S1056      H1072   1.407   1_545  S
S1058      H1069   1.395       .  S
C1060      C1061   1.386       .  A
C1060      S1065   1.806       .  S
C1061      C1062   1.405       .  A
C1061      H1066   1.072       .  S
C1062      C1063   1.419   1_565  A
C1063      C1064   1.387       .  A
C1063      S1067   1.815       .  S
C1064      H1068   1.083       .  S
S1065      H1070   1.408       .  S
S1067      H1071   1.406       .  S
C1073      C1074   1.393   1_565  A
C1073      C1078   1.385       .  A
C1073      H1083   1.085       .  S
C1074      C1075   1.404       .  A
C1074      C1079   1.447       .  S
C1075      C1076   1.385       .  A
C1075      S1080   1.803       .  S
C1076      C1077   1.402       .  A
C1076      H1081   1.078       .  S
C1077      C1078   1.425   1_545  A
C1078      S1082   1.813       .  S
C1079      C1084   1.407   1_545  A
C1079      C1088   1.384       .  A
S1080      H1096   1.405       .  S
S1082      H1093   1.393       .  S
C1084      C1085   1.386       .  A
C1084      S1089   1.809       .  S
C1085      C1086   1.398   1_565  A
C1085      H1090   1.075       .  S
C1086      C1087   1.437       .  A
C1087      C1088   1.384       .  A
C1087      S1091   1.819       .  S
C1088      H1092   1.085       .  S
S1089      H1094   1.407       .  S
S1091      H1095   1.392       .  S
C1097      C1098   1.406       .  A
C1097      C1102   1.406       .  A
C1098      C1099   1.418   1_565  A
C1098      C1103   1.501       .  S
C1099      C1100   1.408       .  A
C1099      S1104   1.803       .  S
C1100      C1101   1.403   1_545  A
C1100      H1105   1.083       .  S
C1101      C1102   1.414       .  A
C1103      C1112   1.407       .  A
S1104      H1120   1.405       .  S
S1106      H1117   1.405       .  S
C1108      C1109   1.403       .  A
C1108      S1113   1.807       .  S
C1109      H1114   1.081       .  S
C1110      C1111   1.416       .  A
C1111      C1112   1.410       .  A
C1111      S1115   1.797       .  S
C1112      H1116   1.084       .  S
S1113      H1118   1.407       .  S
S1115      H1119   1.407       .  S
