geometry optimzed in LAMMPS
_audit_creation_date              2020-11-30 
_audit_creation_method            'lammps2cif' 
_symmetry_space_group_name_H-M    'P1' 
_symmetry_Int_Tables_number       1 
_symmetry_cell_setting            triclinic 
loop_ 
_symmetry_equiv_pos_as_xyz 
  x,y,z 
_cell_length_a                    46.89505829 
_cell_length_b                    46.92802563542988 
_cell_length_c                    46.68518622110694 
_cell_angle_alpha                 89.93532182511618 
_cell_angle_beta                  90.0360450219254 
_cell_angle_gamma                 90.84866462322285 
loop_ 
_atom_site_label 
_atom_site_type_symbol 
_atom_site_fract_x 
_atom_site_fract_y 
_atom_site_fract_z 
_atom_site_charge 
O1          O  0.52581146  0.03688556  0.82976313    -0.86800
O2          O  0.52320322  0.04328167  0.66662397    -0.87000
O3          O  0.58069509  0.03190607  0.74665753    -0.88600
O4          O  0.51626626  0.09795608  0.75468560    -0.87400
O5          O  0.46747549  0.09727631  0.75605610    -0.87000
O6          O  0.58000294  0.98321305  0.74322717    -0.88400
O7          O  0.54576353  0.06813568  0.70261343    -0.86800
O8          O  0.54901662  0.06302032  0.79544017    -0.86400
Zr9        Zr  0.53146622  0.04844410  0.74872208     2.84300
O10         O  0.49102088  0.04901589  0.71933514    -1.08400
O11         O  0.53135816  0.00720274  0.77696625    -1.09100
C12         C  0.54420935  0.05608581  0.82173308     1.06300
C13         C  0.54037567  0.06295755  0.67598592     1.06200
C14         C  0.59295827  0.00765382  0.74315335     1.09200
C15         C  0.49197337  0.11022027  0.75821195     1.07000
H16         H  0.54809485  0.00882806  0.70661870     0.32600
O17         O  0.53140715  0.00839795  0.71881028    -1.29300
H18         H  0.49131525  0.06328894  0.79045579     0.32200
O19         O  0.49091770  0.04715248  0.77766989    -1.31000
O20         O  0.46188926  0.97266024  0.66467596    -0.86800
O21         O  0.45196973  0.97669490  0.82641825    -0.88300
O22         O  0.54623920  0.94936491  0.70122454    -0.86900
O23         O  0.43570475  0.06726345  0.70221635    -0.86900
O24         O  0.43241630  0.06091823  0.79589125    -0.86600
O25         O  0.55033173  0.95233964  0.79319930    -0.86400
O26         O  0.46550232  0.91752518  0.74638817    -0.86800
O27         O  0.40036640  0.98330821  0.74274623    -0.86300
O28         O  0.51412108  0.91765673  0.75020135    -0.87300
O29         O  0.40041869  0.03214723  0.74568812    -0.86500
O30         O  0.52382996  0.97531313  0.66619612    -0.86900
O31         O  0.52459369  0.97368611  0.82889720    -0.86600
O32         O  0.46056645  0.04075170  0.83011639    -0.86300
O33         O  0.45793143  0.04174248  0.66681065    -0.86700
O34         O  0.43594440  0.94893799  0.69840675    -0.87000
O35         O  0.42943902  0.95143866  0.79094300    -0.88300
Zr36       Zr  0.49110134  0.00866325  0.68936412     2.83100
Zr37       Zr  0.49057885  0.00603612  0.80583769     2.83500
Zr38       Zr  0.53071090  0.96713443  0.74736434     2.84100
Zr39       Zr  0.45031089  0.04809164  0.74850512     2.83400
Zr40       Zr  0.44962380  0.96691265  0.74569514     2.84200
O41         O  0.45017917  0.00655542  0.77608101    -1.08900
O42         O  0.49064578  0.96744909  0.71757190    -1.08400
C43         C  0.44382728  0.95302659  0.67220659     1.06300
C44         C  0.43274448  0.95876908  0.81732636     1.08900
C45         C  0.54104546  0.95575464  0.67488753     1.06500
C46         C  0.44082384  0.06124530  0.67570625     1.06800
C47         C  0.44034449  0.05745659  0.82217085     1.06400
C48         C  0.54453725  0.95713856  0.81976045     1.05900
C49         C  0.48959232  0.90478972  0.74923568     1.06400
C50         C  0.38773259  0.00763085  0.74291515     1.05900
H51         H  0.48922077  0.94904026  0.78801479     0.32600
O52         O  0.48971189  0.96590453  0.77608837    -1.30000
H53         H  0.43383802  0.00840331  0.70573452     0.32600
O54         O  0.44991085  0.00830310  0.71774259    -1.31400
C55         C  0.68154234  0.20301680  0.49658543     0.86200
C56         C  0.67051611  0.18582794  0.52283757    -0.54100
C57         C  0.64121016  0.18387766  0.52544961     0.09100
C58         C  0.62589977  0.19928398  0.50034441     0.20000
C59         C  0.66727491  0.18660735  0.47175950    -0.54800
C60         C  0.63820048  0.18474722  0.47314241     0.09200
C61         C  0.66672838  0.23158647  0.49784598    -0.54300
C62         C  0.63804228  0.23012501  0.50010418     0.09800
H63         H  0.68498629  0.17474354  0.53694721     0.14300
H64         H  0.60236748  0.19916574  0.50179976     0.00000
H65         H  0.67907407  0.17505014  0.45568448     0.14600
H66         H  0.67833189  0.25182230  0.49764753     0.14400
O67         O  0.54665203  0.06979186  0.29415314    -0.86800
O68         O  0.43241464  0.95236732  0.28902712    -0.87000
O69         O  0.45884275  0.04410072  0.32725076    -0.88600
O70         O  0.52250066  0.97627349  0.32604790    -0.87400
O71         O  0.54042109  0.94748713  0.29136528    -0.87000
O72         O  0.43671950  0.06943829  0.29216741    -0.88400
O73         O  0.45678023  0.97571972  0.32504252    -0.86800
O74         O  0.52317754  0.04312266  0.32812609    -0.86400
Zr75       Zr  0.49023758  0.01027483  0.30343113     2.84300
O76         O  0.48840412  0.96996993  0.27372912    -1.08400
O77         O  0.49255777  0.05163281  0.27510949    -1.09100
C78         C  0.54057002  0.06340425  0.32043341     1.06300
C79         C  0.43857016  0.95697351  0.31555192     1.06200
C80         C  0.44145215  0.06349573  0.31875628     1.09200
C81         C  0.53702490  0.95455809  0.31779860     1.07000
H82         H  0.43339774  0.01206231  0.28561140     0.32600
O83         O  0.45014241  0.01186408  0.27362316    -1.29300
H84         H  0.54729084  0.00856278  0.28776009     0.32200
O85         O  0.53107980  0.00936915  0.27504013    -1.31000
O86         O  0.43161767  0.95887935  0.19573221    -0.86800
O87         O  0.55538955  0.06475741  0.20123366    -0.88300
O88         O  0.40221577  0.03781015  0.24660402    -0.86900
O89         O  0.51011193  0.92030243  0.24050582    -0.86900
O90         O  0.57944513  0.98307173  0.25070909    -0.86600
O91         O  0.47048797  0.10211113  0.24129959    -0.86400
O92         O  0.45825410  0.04316732  0.16418136    -0.86800
O93         O  0.52564734  0.98041690  0.16434887    -0.86300
O94         O  0.43563335  0.06902182  0.19856944    -0.87300
O95         O  0.54507924  0.95237826  0.19876148    -0.86500
O96         O  0.40007834  0.98896670  0.24724919    -0.86900
O97         O  0.51952474  0.10071513  0.24206942    -0.86600
O98         O  0.58217796  0.03210057  0.25241165    -0.86300
O99         O  0.46144607  0.92157479  0.24150224    -0.86700
O100        O  0.45956220  0.98156075  0.16194292    -0.87000
O101        O  0.52697605  0.04633725  0.16581514    -0.88300
Zr102      Zr  0.44862877  0.97182385  0.24357082     2.83100
Zr103      Zr  0.53393347  0.05082040  0.24696577     2.83500
Zr104      Zr  0.45242909  0.05304828  0.24522896     2.84100
Zr105      Zr  0.52929230  0.96896938  0.24536372     2.83400
Zr106      Zr  0.49276085  0.01264707  0.18759787     2.84200
O107        O  0.53288778  0.01040562  0.21735342    -1.08900
O108        O  0.45114934  0.01306884  0.21544412    -1.08400
C109        C  0.43902218  0.96464642  0.16966529     1.06300
C110        C  0.54850649  0.06154451  0.17460597     1.08900
C111        C  0.38850427  0.01371859  0.24832813     1.06500
C112        C  0.48518265  0.90809825  0.23973812     1.06800
C113        C  0.59320641  0.00699851  0.25355198     1.06400
C114        C  0.49555737  0.11390964  0.23986833     1.05900
C115        C  0.43999940  0.06182840  0.17227125     1.06400
C116        C  0.54162696  0.95979167  0.17242227     1.05900
H117        H  0.49462988  0.06907403  0.20483127     0.32600
O118        O  0.49380243  0.05255297  0.21708396    -1.30000
H119        H  0.48898733  0.95481459  0.20272380     0.32600
O120        O  0.48965673  0.97113136  0.21523328    -1.31400
C121        C  0.29096550  0.82657338  0.99863638     0.86200
C122        C  0.30372807  0.83884383  0.97086456    -0.54100
C123        C  0.30779281  0.86761608  0.97027381     0.09100
C124        C  0.29777858  0.88217352  0.99830435     0.20000
C125        C  0.31177530  0.83801313  0.02175272    -0.54800
C126        C  0.31501484  0.86716196  0.02203365     0.09200
C127        C  0.26366965  0.84282272  0.00344307    -0.54300
C128        C  0.26647685  0.87175329  0.00293935     0.09800
H129        H  0.31126171  0.82568676  0.95361259     0.14300
H130        H  0.30071609  0.90564174  0.99844298     0.00000
H131        H  0.32294384  0.82432869  0.03664317     0.14600
H132        H  0.24325951  0.83202557  0.00672407     0.14400
C133        C  0.69101014  0.82575651  0.00099824     0.86200
C134        C  0.67255995  0.83603939  0.02618114    -0.54100
C135        C  0.66469692  0.86403384  0.02497893     0.09100
C136        C  0.67617517  0.87950104  0.99806407     0.20000
C137        C  0.67190997  0.83335015  0.97478152    -0.54800
C138        C  0.66461482  0.86157849  0.97276571     0.09200
C139        C  0.71608193  0.84685179  0.99998379    -0.54300
C140        C  0.70871166  0.87476848  0.99914790     0.09800
H141        H  0.66554972  0.82201887  0.04328541     0.14300
H142        H  0.67012506  0.90215594  0.99624831     0.00000
H143        H  0.66327577  0.81767858  0.95999567     0.14600
H144        H  0.73812705  0.84024007  0.00178544     0.14400
C145        C  0.67754450  0.81714942  0.49440661     0.86200
C146        C  0.66411362  0.83030257  0.46766677    -0.54100
C147        C  0.63538161  0.83450089  0.46915211     0.09100
C148        C  0.62200902  0.82371705  0.49770307     0.20000
C149        C  0.66751636  0.83618410  0.51951541    -0.54800
C150        C  0.63863385  0.84001136  0.52127801     0.09200
C151        C  0.66042070  0.78933561  0.49945352    -0.54300
C152        C  0.63144885  0.79231726  0.50089328     0.09800
H153        H  0.67672047  0.83662359  0.44915516     0.14300
H154        H  0.59859946  0.82634180  0.49917367     0.00000
H155        H  0.68149154  0.84465266  0.53585206     0.14600
H156        H  0.67048054  0.76875526  0.50175253     0.14400
C157        C  0.29705963  0.19889444  0.99680294     0.86200
C158        C  0.31221269  0.18633310  0.02331677    -0.54100
C159        C  0.31673703  0.15751111  0.02238836     0.09100
C160        C  0.30472763  0.14382286  0.99490254     0.20000
C161        C  0.31631241  0.18866867  0.97181982    -0.54800
C162        C  0.32046309  0.15967489  0.97056259     0.09200
C163        C  0.26968755  0.18177620  0.99381347    -0.54300
C164        C  0.27314318  0.15330052  0.99287855     0.09800
H165        H  0.31977120  0.19948225  0.04088392     0.14300
H166        H  0.30815925  0.12078122  0.99455589     0.00000
H167        H  0.32660179  0.20318618  0.95698414     0.14600
H168        H  0.24882374  0.19150964  0.99241337     0.14400
C169        C  0.68953599  0.20071044  0.99419119     0.86200
C170        C  0.66992118  0.18794731  0.97060942    -0.54100
C171        C  0.66572171  0.15886310  0.97150751     0.09100
C172        C  0.68278123  0.14534151  0.99639519     0.20000
C173        C  0.67494253  0.18961768  0.02183437    -0.54800
C174        C  0.67130235  0.16061766  0.02320840     0.09200
C175        C  0.71713972  0.18461952  0.99164907    -0.54300
C176        C  0.71433771  0.15597259  0.99235843     0.09800
H177        H  0.65955955  0.20108578  0.95495291     0.14300
H178        H  0.67996189  0.12218664  0.99868956     0.00000
H179        H  0.66664688  0.20364836  0.03818815     0.14600
H180        H  0.73762194  0.19524020  0.98815144     0.14400
C181        C  0.30832651  0.20652837  0.50016985     0.86200
C182        C  0.31757127  0.19004811  0.47334505    -0.54100
C183        C  0.34576547  0.18244881  0.47261095     0.09100
C184        C  0.36249403  0.19362012  0.49905118     0.20000
C185        C  0.31852378  0.18903954  0.52598239    -0.54800
C186        C  0.34638713  0.18177624  0.52529787     0.09200
C187        C  0.32869968  0.23259916  0.50095814    -0.54300
C188        C  0.35699745  0.22607696  0.49937201     0.09800
H189        H  0.30283195  0.18564817  0.45594647     0.14300
H190        H  0.38523755  0.18785308  0.49991965     0.00000
H191        H  0.30532494  0.18390072  0.54433825     0.14600
H192        H  0.32155052  0.25446860  0.50177546     0.14400
C193        C  0.30533984  0.81082557  0.49198969     0.86200
C194        C  0.31704567  0.82698754  0.51825833    -0.54100
C195        C  0.34592259  0.83069425  0.51916768     0.09100
C196        C  0.36093516  0.81809836  0.49250692     0.20000
C197        C  0.31693999  0.82933946  0.46705945    -0.54800
C198        C  0.34610994  0.83287205  0.46686862     0.09200
C199        C  0.32197954  0.78338395  0.49023996    -0.54300
C200        C  0.35082253  0.78642859  0.49108602     0.09800
H201        H  0.30337714  0.83641446  0.53419167     0.14300
H202        H  0.38443453  0.82108859  0.49264175     0.00000
H203        H  0.30337575  0.83947349  0.45133490     0.14600
H204        H  0.31142099  0.76265810  0.48868425     0.14400
O205        O  0.90254205  0.76505813  0.46651098    -0.86800
O206        O  0.01115874  0.75502865  0.58487031    -0.87000
O207        O  0.93345887  0.71246564  0.54985007    -0.88600
O208        O  0.93482658  0.80741847  0.54923283    -0.87400
O209        O  0.95972834  0.84156533  0.52424748    -0.87000
O210        O  0.95771712  0.67741262  0.52586789    -0.88400
O211        O  0.96282538  0.76025540  0.58330242    -0.86800
O212        O  0.90074113  0.76376417  0.51557624    -0.86400
Zr213      Zr  0.94969119  0.75984137  0.53302605     2.84300
O214        O  0.99173609  0.78746525  0.53477539    -1.08400
O215        O  0.94993954  0.73070115  0.49210907    -1.09100
C216        C  0.88903471  0.76630526  0.49064950     1.06300
C217        C  0.98643548  0.75710076  0.59696197     1.06200
C218        C  0.93968622  0.68612081  0.54463546     1.09200
C219        C  0.94043636  0.83377675  0.54261040     1.07000
H220        H  0.98841680  0.71750615  0.55061569     0.32600
O221        O  0.98914475  0.72952765  0.53380859    -1.29300
H222        H  0.93693983  0.80205059  0.49216854     0.32200
O223        O  0.95310224  0.78958983  0.49287493    -1.31000
O224        O  0.08099639  0.75980577  0.52138898    -0.86800
O225        O  0.97104780  0.76228019  0.40336499    -0.88300
O226        O  0.02393802  0.67676245  0.52553066    -0.86900
O227        O  0.02656222  0.83751524  0.53267161    -0.86900
O228        O  0.96583698  0.84083968  0.45811978    -0.86600
O229        O  0.95692595  0.67994661  0.45691181    -0.86400
O230        O  0.05198002  0.71170599  0.44067458    -0.86800
O231        O  0.04955677  0.80297171  0.43367924    -0.86300
O232        O  0.02420200  0.67677522  0.46138722    -0.87300
O233        O  0.02894050  0.83898030  0.45916964    -0.86500
O234        O  0.04561979  0.71059515  0.55330776    -0.86900
O235        O  0.93431883  0.71612637  0.43301292    -0.86600
O236        O  0.93893404  0.80762535  0.43442956    -0.86300
O237        O  0.04686137  0.80104501  0.55800989    -0.86700
O238        O  0.08253113  0.76071597  0.47214330    -0.87000
O239        O  0.01880840  0.75457811  0.40492166    -0.88300
Zr240      Zr  0.03081098  0.75705370  0.53618876     2.83100
Zr241      Zr  0.95266493  0.76092381  0.45209789     2.83500
Zr242      Zr  0.99016717  0.70075842  0.49271464     2.84100
Zr243      Zr  0.99520499  0.81739030  0.49446810     2.83400
Zr244      Zr  0.03382913  0.75799981  0.45466460     2.84200
O245        O  0.99474470  0.78822450  0.45381338    -1.08900
O246        O  0.03197042  0.72854655  0.49506506    -1.08400
C247        C  0.09422597  0.76168396  0.49712423     1.06300
C248        C  0.99517094  0.75760397  0.39120854     1.08900
C249        C  0.04155884  0.68447529  0.54566878     1.06500
C250        C  0.04260859  0.82761518  0.55308352     1.06800
C251        C  0.94691368  0.83361349  0.43918766     1.06400
C252        C  0.93916050  0.68959833  0.43798591     1.05900
C253        C  0.04515632  0.68535750  0.44537750     1.06400
C254        C  0.04525938  0.82955778  0.43879408     1.05900
H255        H  0.99211157  0.71867135  0.43558826     0.32600
O256        O  0.99200546  0.73041322  0.45253983    -1.30000
H257        H  0.05093469  0.79851217  0.49648793     0.32600
O258        O  0.03401685  0.78682863  0.49575675    -1.31400
O259        O  0.90579063  0.25674453  0.47159693    -0.86800
O260        O  0.01727277  0.26398066  0.58985392    -0.87000
O261        O  0.93931308  0.21359575  0.55714286    -0.88600
O262        O  0.93662280  0.30556408  0.55552029    -0.87400
O263        O  0.96209189  0.34118717  0.53349829    -0.87000
O264        O  0.95735494  0.17992176  0.52745515    -0.88400
O265        O  0.96850029  0.26205553  0.58878946    -0.86800
O266        O  0.90492347  0.25319303  0.52073931    -0.86400
Zr267      Zr  0.95361431  0.26000680  0.53864323     2.84300
O268        O  0.99472374  0.28874156  0.54091666    -1.08400
O269        O  0.95317313  0.23323296  0.49647745    -1.09100
C270        C  0.89300974  0.25225606  0.49575092     1.06300
C271        C  0.99257556  0.26468589  0.60207320     1.06200
C272        C  0.94188963  0.18756777  0.54894150     1.09200
C273        C  0.94261750  0.33207437  0.55105705     1.07000
H274        H  0.99260269  0.21863255  0.55511613     0.32600
O275        O  0.99328561  0.23075939  0.53842512    -1.29300
H276        H  0.93795126  0.30189737  0.49892670     0.32200
O277        O  0.95480988  0.29039583  0.49878432    -1.31000
O278        O  0.08429233  0.25505594  0.52645890    -0.86800
O279        O  0.97436027  0.26719622  0.40759509    -0.88300
O280        O  0.02304076  0.17880167  0.52977527    -0.86900
O281        O  0.02992351  0.34096710  0.53515542    -0.86900
O282        O  0.96428089  0.34338858  0.46842959    -0.86600
O283        O  0.95867151  0.18183246  0.46126375    -0.86400
O284        O  0.05176653  0.21560220  0.44174305    -0.86800
O285        O  0.05677087  0.30948167  0.44647416    -0.86300
O286        O  0.02354471  0.18070139  0.46157438    -0.87300
O287        O  0.03098167  0.34350302  0.46990963    -0.86500
O288        O  0.04701397  0.21199909  0.55749637    -0.86900
O289        O  0.93650002  0.21814316  0.43817701    -0.86600
O290        O  0.93836977  0.30998141  0.44291182    -0.86300
O291        O  0.05469419  0.30508422  0.55694619    -0.86700
O292        O  0.08600724  0.25828090  0.47747440    -0.87000
O293        O  0.02336802  0.26741198  0.40972723    -0.88300
Zr294      Zr  0.03457282  0.25940669  0.54076655     2.83100
Zr295      Zr  0.95545418  0.26324661  0.45658484     2.83500
Zr296      Zr  0.99232791  0.20352849  0.49603294     2.84100
Zr297      Zr  0.99642714  0.31898257  0.50106000     2.83400
Zr298      Zr  0.03716197  0.26228439  0.45954284     2.84200
O299        O  0.99703639  0.29152822  0.45920797    -1.08900
O300        O  0.03422450  0.23166526  0.49897048    -1.08400
C301        C  0.09774099  0.25504079  0.50233060     1.06300
C302        C  0.99949489  0.26896681  0.39613367     1.08900
C303        C  0.04023830  0.18623879  0.55016915     1.06500
C304        C  0.04951736  0.33168581  0.55219643     1.06800
C305        C  0.94482363  0.33577907  0.45026116     1.06400
C306        C  0.94058410  0.19138820  0.44266936     1.05900
C307        C  0.04365209  0.18928297  0.44461715     1.06400
C308        C  0.05093676  0.33570434  0.45258995     1.05900
H309        H  0.99538170  0.22316417  0.43874716     0.32600
O310        O  0.99537124  0.23405842  0.45627001    -1.30000
H311        H  0.05399082  0.30114973  0.50191977     0.32600
O312        O  0.03670319  0.28978012  0.50114286    -1.31400
C313        C  0.79616764  0.50949953  0.68364306     0.86200
C314        C  0.81375487  0.48338762  0.67454137    -0.54100
C315        C  0.82297990  0.48360394  0.64666233     0.09100
C316        C  0.81387459  0.51073413  0.63041758     0.20000
C317        C  0.81631280  0.53487292  0.67639048    -0.54800
C318        C  0.82558150  0.53564453  0.64861103     0.09200
C319        C  0.77225337  0.51051849  0.66155882    -0.54300
C320        C  0.78106519  0.51119473  0.63378793     0.09800
H321        H  0.81917078  0.46632347  0.68881340     0.14300
H322        H  0.82146047  0.51222503  0.60802586     0.00000
H323        H  0.82291286  0.55074189  0.69205704     0.14600
H324        H  0.74983118  0.50999131  0.66744261     0.14400
C325        C  0.19210445  0.51303989  0.68607777     0.86200
C326        C  0.17317177  0.53758676  0.67521899    -0.54100
C327        C  0.16809314  0.53809083  0.64625927     0.09100
C328        C  0.18290883  0.51318004  0.63059916     0.20000
C329        C  0.17596880  0.48632923  0.67488498    -0.54800
C330        C  0.17155820  0.48585426  0.64588953     0.09200
C331        C  0.21902320  0.51503247  0.66811035    -0.54300
C332        C  0.21491722  0.51622385  0.63927751     0.09800
H333        H  0.16372010  0.55285739  0.68940175     0.14300
H334        H  0.17880690  0.51267353  0.60725836     0.00000
H335        H  0.16806011  0.46942453  0.68878537     0.14600
H336        H  0.24008053  0.51678150  0.67777633     0.14400
C337        C  0.80592792  0.00565408  0.29820714     0.86200
C338        C  0.82041184  0.98154233  0.31507600    -0.54100
C339        C  0.84937424  0.98483510  0.31867483     0.09100
C340        C  0.86110886  0.01250849  0.30443879     0.20000
C341        C  0.81512348  0.03206713  0.31616885    -0.54800
C342        C  0.84413978  0.03667883  0.31909937     0.09200
C343        C  0.82237779  0.00766697  0.27015285    -0.54300
C344        C  0.85092629  0.01073064  0.27310833     0.09800
H345        H  0.80873663  0.96446248  0.32552004     0.14300
H346        H  0.88437902  0.01575275  0.30529574     0.00000
H347        H  0.79939593  0.04412857  0.32770375     0.14600
H348        H  0.81227342  0.00507320  0.24933298     0.14400
C349        C  0.80025753  0.00787136  0.68527271     0.86200
C350        C  0.81162925  0.03512227  0.67136080    -0.54100
C351        C  0.84033846  0.03618999  0.66740638     0.09100
C352        C  0.85581126  0.00950341  0.67907080     0.20000
C353        C  0.81231303  0.98305448  0.66737917    -0.54800
C354        C  0.84122625  0.98399925  0.66359163     0.09200
C355        C  0.81683919  0.00521305  0.71332302    -0.54300
C356        C  0.84586036  0.00648691  0.71077326     0.09800
H357        H  0.79776773  0.05233789  0.66497084     0.14300
H358        H  0.87924428  0.01054271  0.67604068     0.00000
H359        H  0.79974036  0.96504396  0.65984878     0.14600
H360        H  0.80628795  0.00213381  0.73383971     0.14400
C361        C  0.80534912  0.49741348  0.31044370     0.86200
C362        C  0.81959025  0.52635986  0.31723659    -0.54100
C363        C  0.82108855  0.53254180  0.34572339     0.09100
C364        C  0.80589165  0.51002466  0.36508469     0.20000
C365        C  0.82123601  0.47608382  0.32904721    -0.54800
C366        C  0.82107129  0.48168794  0.35794684     0.09200
C367        C  0.77582219  0.50003665  0.32413668    -0.54300
C368        C  0.77542076  0.50633255  0.35251123     0.09800
H369        H  0.82868400  0.54051205  0.30117039     0.14300
H370        H  0.80531823  0.51619425  0.38782659     0.00000
H371        H  0.83194237  0.45791466  0.31980627     0.14600
H372        H  0.75620471  0.49740079  0.31218666     0.14400
C373        C  0.19628542  0.51665299  0.31593080     0.86200
C374        C  0.17561677  0.49248440  0.32565301    -0.54100
C375        C  0.17090436  0.49062960  0.35465500     0.09100
C376        C  0.18740830  0.51418679  0.37132028     0.20000
C377        C  0.18369643  0.54375797  0.32845510    -0.54800
C378        C  0.17825207  0.54251740  0.35714987     0.09200
C379        C  0.22321416  0.51085516  0.33392896    -0.54300
C380        C  0.21882166  0.51034607  0.36280319     0.09800
H381        H  0.16579209  0.47774568  0.31075777     0.14300
H382        H  0.18471420  0.51351998  0.39485606     0.00000
H383        H  0.17754298  0.56172885  0.31524666     0.14600
H384        H  0.24409200  0.50714761  0.32475841     0.14400
C385        C  0.17632050  0.01423780  0.29534907     0.86200
C386        C  0.16536819  0.03976066  0.31257627    -0.54100
C387        C  0.13682969  0.03884910  0.31918390     0.09100
C388        C  0.12133300  0.01244541  0.30614886     0.20000
C389        C  0.16608036  0.98739984  0.31185295    -0.54800
C390        C  0.13759171  0.98651256  0.31806295     0.09200
C391        C  0.15737314  0.01310818  0.26857924    -0.54300
C392        C  0.12874159  0.01369088  0.27365404     0.09800
H393        H  0.17934064  0.05735137  0.31871623     0.14300
H394        H  0.09826016  0.01080121  0.31093674     0.00000
H395        H  0.17991068  0.96992157  0.31743612     0.14600
H396        H  0.16569265  0.01258275  0.24692454     0.14400
C397        C  0.17604021  0.01281088  0.69164505     0.86200
C398        C  0.16682968  0.98497278  0.67660011    -0.54100
C399        C  0.13840810  0.98243979  0.67106858     0.09100
C400        C  0.12130973  0.00867804  0.68013566     0.20000
C401        C  0.16513446  0.03544043  0.67009395    -0.54800
C402        C  0.13629807  0.03381224  0.66469343     0.09200
C403        C  0.15635842  0.01578292  0.71771563    -0.54300
C404        C  0.12780622  0.01330713  0.71217510     0.09800
H405        H  0.18180579  0.96894494  0.66972265     0.14300
H406        H  0.09825660  0.00634687  0.67529685     0.00000
H407        H  0.17858386  0.05066104  0.65887807     0.14600
H408        H  0.16464264  0.01997249  0.73905198     0.14400
O409        O  0.74686961  0.60663636  0.98421769    -0.86800
O410        O  0.75090380  0.48165192  0.08677538    -0.87000
O411        O  0.70120133  0.56358899  0.06403285    -0.88600
O412        O  0.79555084  0.56858651  0.05819640    -0.87400
O413        O  0.82911198  0.54528274  0.03137583    -0.87000
O414        O  0.66582139  0.54448316  0.03551590    -0.88400
O415        O  0.75772368  0.52964098  0.09010417    -0.86800
O416        O  0.74664227  0.60185849  0.03327285    -0.86400
Zr417      Zr  0.74828312  0.55128315  0.04345335     2.84300
O418        O  0.77577795  0.51045365  0.03866693    -1.08400
O419        O  0.71924820  0.55555395  0.00272893    -1.09100
C420        C  0.74578359  0.61680416  0.01012394     1.06300
C421        C  0.75728935  0.50434893  0.10102327     1.06200
C422        C  0.67459927  0.55925309  0.05710624     1.09200
C423        C  0.82151478  0.56350223  0.05061123     1.07000
H424        H  0.70669326  0.51011512  0.05788015     0.32600
O425        O  0.71787324  0.51150816  0.04058526    -1.29300
H426        H  0.78898683  0.57141281  0.00289740     0.32200
O427        O  0.77683123  0.55466190  0.00199889    -1.31000
O428        O  0.73795183  0.42323070  0.01672223    -0.86800
O429        O  0.74942770  0.54565007  0.91037424    -0.88300
O430        O  0.66437358  0.48235446  0.03262942    -0.86900
O431        O  0.82686638  0.47840722  0.02934103    -0.86900
O432        O  0.82932892  0.54765500  0.96535957    -0.86600
O433        O  0.66718198  0.55039770  0.96676481    -0.86400
O434        O  0.69642239  0.46406784  0.93733602    -0.86800
O435        O  0.78910799  0.45958934  0.93692226    -0.86300
O436        O  0.66340521  0.48292332  0.96754804    -0.87300
O437        O  0.82522919  0.48201561  0.96196310    -0.86500
O438        O  0.69842152  0.45483222  0.05371294    -0.86900
O439        O  0.70287121  0.57605061  0.94414467    -0.86600
O440        O  0.79494255  0.57488910  0.94460445    -0.86300
O441        O  0.79144288  0.45145415  0.05048410    -0.86700
O442        O  0.73783013  0.42702816  0.96766136    -0.87000
O443        O  0.74694048  0.49688888  0.90660618    -0.88300
Zr444      Zr  0.74534723  0.47061675  0.03622175     2.83100
Zr445      Zr  0.74797099  0.55870660  0.96153097     2.83500
Zr446      Zr  0.68873256  0.51554766  0.99967644     2.84100
Zr447      Zr  0.80444817  0.51350347  0.99763391     2.83400
Zr448      Zr  0.74404452  0.47728942  0.95490902     2.84200
O449        O  0.77465999  0.51719853  0.95769844    -1.08900
O450        O  0.71591549  0.47446410  0.99604552    -1.08400
C451        C  0.73541678  0.41283140  0.99129459     1.06300
C452        C  0.74933563  0.52215139  0.89575795     1.08900
C453        C  0.67225984  0.46244481  0.05002592     1.06500
C454        C  0.81793778  0.45806815  0.04603895     1.06800
C455        C  0.82128330  0.56811587  0.94856406     1.06400
C456        C  0.67650833  0.56953203  0.94883235     1.05900
C457        C  0.67048387  0.46727339  0.94606340     1.06400
C458        C  0.81563637  0.46441857  0.94284291     1.05900
H459        H  0.70545631  0.51999225  0.94153687     0.32600
O460        O  0.71724915  0.51869011  0.95843932    -1.30000
H461        H  0.78483675  0.45586071  0.99361624     0.32600
O462        O  0.77392726  0.47308029  0.99502877    -1.31400
O463        O  0.25336934  0.60067516  0.97438319    -0.86800
O464        O  0.24154349  0.48932003  0.09149387    -0.87000
O465        O  0.20244754  0.57139114  0.05700388    -0.88600
O466        O  0.29592931  0.56375231  0.06094803    -0.87400
O467        O  0.32906388  0.53714931  0.03715837    -0.87000
O468        O  0.16643164  0.54742945  0.03312194    -0.88400
O469        O  0.24706069  0.53751409  0.09049075    -0.86800
O470        O  0.25505187  0.60146620  0.02360932    -0.86400
Zr471      Zr  0.24847809  0.55277564  0.04098361     2.84300
O472        O  0.27536757  0.51129027  0.04127360    -1.08400
O473        O  0.21871800  0.55320210  0.00058444    -1.09100
C474        C  0.25633876  0.61341375  0.99868068     1.06300
C475        C  0.24354559  0.51378357  0.10390641     1.06200
C476        C  0.17586364  0.56622654  0.05112785     1.09200
C477        C  0.32173414  0.55514310  0.05673544     1.07000
H478        H  0.20523820  0.51384809  0.05874371     0.32600
O479        O  0.21727326  0.51325408  0.04201066    -1.29300
H480        H  0.29006887  0.56702740  0.99998290     0.32200
O481        O  0.27706066  0.55091018  0.00005166    -1.31000
O482        O  0.24698130  0.42225596  0.02879035    -0.86800
O483        O  0.24396444  0.53533416  0.91027838    -0.88300
O484        O  0.16371803  0.47974586  0.03360861    -0.86900
O485        O  0.32519886  0.47373743  0.03188548    -0.86900
O486        O  0.32852340  0.54373599  0.96923311    -0.86600
O487        O  0.16570365  0.54376667  0.96545889    -0.86400
O488        O  0.19766615  0.45375498  0.94520662    -0.86800
O489        O  0.28728923  0.45366018  0.94008631    -0.86300
O490        O  0.16442356  0.47731338  0.97113253    -0.87300
O491        O  0.32374981  0.47690869  0.96371631    -0.86500
O492        O  0.19775563  0.45385168  0.05707946    -0.86900
O493        O  0.20098780  0.57011574  0.94405695    -0.86600
O494        O  0.29461466  0.56414806  0.94131308    -0.86300
O495        O  0.29031346  0.45710608  0.06180859    -0.86700
O496        O  0.24659621  0.42112481  0.97953393    -0.87000
O497        O  0.24065036  0.48641117  0.91141668    -0.88300
Zr498      Zr  0.24449531  0.47192736  0.04259372     2.83100
Zr499      Zr  0.24734113  0.55139259  0.95961188     2.83500
Zr500      Zr  0.18825360  0.51292722  0.00122432     2.84100
Zr501      Zr  0.30400739  0.50926398  0.00022542     2.83400
Zr502      Zr  0.24382456  0.47021980  0.96112634     2.84200
O503        O  0.27454641  0.50989817  0.95966374    -1.08900
O504        O  0.21518586  0.47130021  0.00203338    -1.08400
C505        C  0.24836950  0.40926320  0.00454820     1.06300
C506        C  0.24068360  0.51072632  0.89835539     1.08900
C507        C  0.17167563  0.45999805  0.05109984     1.06500
C508        C  0.31653650  0.45877337  0.05354951     1.06800
C509        C  0.32083018  0.56049580  0.94878000     1.06400
C510        C  0.17435916  0.56324424  0.94772157     1.05900
C511        C  0.17176955  0.45867518  0.95232029     1.06400
C512        C  0.31379967  0.45932755  0.94454442     1.05900
H513        H  0.20453085  0.51158887  0.94388319     0.32600
O514        O  0.21675730  0.51160469  0.96045948    -1.30000
H515        H  0.28458502  0.45324454  0.00150081     0.32600
O516        O  0.27310814  0.47006292  0.00151742    -1.31400
C517        C  0.99997673  0.70897080  0.80861161     0.86200
C518        C  0.02653007  0.69184671  0.81764886    -0.54100
C519        C  0.02970077  0.68863245  0.84676197     0.09100
C520        C  0.00677964  0.70441684  0.86428033     0.20000
C521        C  0.97511908  0.69404076  0.82417572    -0.54800
C522        C  0.97787451  0.69149100  0.85340635     0.09200
C523        C  0.00506298  0.73717402  0.82419176    -0.54300
C524        C  0.00867030  0.73544300  0.85287840     0.09800
H525        H  0.04200674  0.68341359  0.80283215     0.14300
H526        H  0.00991712  0.70333285  0.88772485     0.00000
H527        H  0.95723238  0.68495553  0.81238928     0.14600
H528        H  0.00734231  0.75738292  0.81300790     0.14400
C529        C  0.99083595  0.32003722  0.81203607     0.86200
C530        C  0.96560128  0.33826111  0.82069448    -0.54100
C531        C  0.96510083  0.34539396  0.84888079     0.09100
C532        C  0.99019045  0.33350142  0.86638008     0.20000
C533        C  0.01770384  0.33675503  0.82232046    -0.54800
C534        C  0.01737347  0.34442277  0.85083090     0.09200
C535        C  0.99057677  0.29442170  0.83243659    -0.54300
C536        C  0.99011999  0.30097469  0.86076664     0.09800
H537        H  0.94940375  0.34509924  0.80563099     0.14300
H538        H  0.98871821  0.33956837  0.88922759     0.00000
H539        H  0.03586233  0.34093072  0.80849182     0.14600
H540        H  0.99337997  0.27265630  0.82524317     0.14400
C541        C  0.49624534  0.69370169  0.79962561     0.86200
C542        C  0.46987252  0.68089218  0.81437864    -0.54100
C543        C  0.47234324  0.65310284  0.82284286     0.09100
C544        C  0.50132735  0.64000670  0.81451100     0.20000
C545        C  0.52144176  0.68761418  0.81996108    -0.54800
C546        C  0.52419350  0.65984730  0.82813442     0.09200
C547        C  0.50227187  0.67342805  0.77451345    -0.54300
C548        C  0.50419022  0.64535317  0.78198263     0.09800
H549        H  0.45092771  0.69325289  0.81858556     0.14300
H550        H  0.50374858  0.61733751  0.82063142     0.00000
H551        H  0.53699297  0.70363081  0.82625391     0.14600
H552        H  0.50537308  0.68056736  0.75259776     0.14400
C553        C  0.49748554  0.69438197  0.20106025     0.86200
C554        C  0.52188773  0.68530214  0.18092671    -0.54100
C555        C  0.52420868  0.65663333  0.17682026     0.09100
C556        C  0.50162552  0.63916611  0.19367490     0.20000
C557        C  0.47041842  0.67981795  0.18942957    -0.54800
C558        C  0.47233951  0.65126171  0.18399736     0.09200
C559        C  0.50445082  0.67778290  0.22860642    -0.54300
C560        C  0.50573192  0.64889163  0.22523917     0.09800
H561        H  0.53725380  0.70006572  0.17188823     0.14300
H562        H  0.50422988  0.61600130  0.19050148     0.00000
H563        H  0.45120608  0.69173201  0.18518537     0.14600
H564        H  0.50800032  0.68789057  0.24923037     0.14400
C565        C  0.99680245  0.31630348  0.18416203     0.86200
C566        C  0.02350484  0.32967932  0.17138972    -0.54100
C567        C  0.02283698  0.33286917  0.14259514     0.09100
C568        C  0.99480776  0.32116880  0.12832396     0.20000
C569        C  0.97245151  0.33534012  0.17270810    -0.54800
C570        C  0.97058857  0.33786902  0.14324294     0.09200
C571        C  0.99173155  0.28808563  0.16816021    -0.54300
C572        C  0.99081202  0.29015344  0.13910803     0.09800
H573        H  0.04088313  0.33807488  0.18446944     0.14300
H574        H  0.99470327  0.32152844  0.10475244     0.00000
H575        H  0.95801375  0.34614354  0.18661763     0.14600
H576        H  0.98827119  0.26789960  0.17914143     0.14400
C577        C  0.00139790  0.71510162  0.17760607     0.86200
C578        C  0.97671942  0.69523121  0.16752995    -0.54100
C579        C  0.97586944  0.68991845  0.13849099     0.09100
C580        C  0.00084649  0.70494838  0.12243942     0.20000
C581        C  0.02837128  0.70094439  0.16661398    -0.54800
C582        C  0.02810970  0.69467527  0.13821952     0.09200
C583        C  0.99710725  0.74165296  0.15866984    -0.54300
C584        C  0.99757308  0.73679655  0.12991284     0.09800
H585        H  0.96120783  0.68615624  0.18227486     0.14300
H586        H  0.00134068  0.70216769  0.09901458     0.00000
H587        H  0.04550210  0.69434808  0.18071705     0.14600
H588        H  0.99182116  0.76245651  0.16700917     0.14400
C589        C  0.49273517  0.32100756  0.81118956     0.86200
C590        C  0.51963331  0.33391194  0.82508690    -0.54100
C591        C  0.51961016  0.36292286  0.82806260     0.09100
C592        C  0.49250227  0.37684774  0.81563128     0.20000
C593        C  0.46750491  0.33289075  0.82857186    -0.54800
C594        C  0.46743446  0.36192402  0.83129978     0.09200
C595        C  0.48965029  0.33696417  0.78249514    -0.54300
C596        C  0.49013510  0.36603884  0.78438745     0.09800
H597        H  0.53703304  0.32090118  0.83271967     0.14300
H598        H  0.49232648  0.40039476  0.81761893     0.00000
H599        H  0.44990687  0.31992895  0.83644582     0.14600
H600        H  0.48666878  0.32613012  0.76214499     0.14400
C601        C  0.49559022  0.32787945  0.20125477     0.86200
C602        C  0.46942236  0.33606429  0.18275888    -0.54100
C603        C  0.46723972  0.36456824  0.17644338     0.09100
C604        C  0.49197174  0.38225295  0.18930171     0.20000
C605        C  0.52085874  0.34033454  0.18370048    -0.54800
C606        C  0.51921093  0.36874743  0.17677455     0.09200
C607        C  0.49391700  0.34667676  0.22761096    -0.54300
C608        C  0.49171703  0.37490390  0.22189986     0.09800
H609        H  0.45400864  0.32044389  0.17505496     0.14300
H610        H  0.49014806  0.40490041  0.18398337     0.00000
H611        H  0.53818563  0.32737359  0.17626416     0.14600
H612        H  0.49342983  0.33820742  0.24928828     0.14400
O613        O  0.55129137  0.44087010  0.54248048    -0.86800
O614        O  0.46436577  0.49962408  0.41717170    -0.87000
O615        O  0.48501884  0.42014846  0.47145381    -0.88600
O616        O  0.55965719  0.47262629  0.44275561    -0.87400
O617        O  0.57531045  0.51647861  0.45673297    -0.87000
O618        O  0.45067514  0.42662641  0.50541373    -0.88400
O619        O  0.49622310  0.46339852  0.42281417    -0.86800
O620        O  0.54426374  0.42833748  0.49528748    -0.86400
Zr621      Zr  0.51505833  0.46364813  0.47133993     2.84300
O622        O  0.51195480  0.51138145  0.45763750    -1.08400
O623        O  0.49891840  0.45917819  0.51897057    -1.09100
C624        C  0.55389127  0.42395549  0.52083051     1.06300
C625        C  0.47761719  0.47728842  0.40816084     1.06200
C626        C  0.46303467  0.41160148  0.48607462     1.09200
C627        C  0.57784004  0.49388556  0.44176105     1.07000
H628        H  0.45560488  0.46851705  0.46338273     0.32600
O629        O  0.46790895  0.47996707  0.47551219    -1.29300
H630        H  0.56356600  0.48378159  0.50081759     0.32200
O631        O  0.54420712  0.49050012  0.50204785    -1.31000
O632        O  0.44468186  0.57606588  0.47121805    -0.86800
O633        O  0.53208945  0.51718653  0.59186455    -0.88300
O634        O  0.40851758  0.47797888  0.49359059    -0.86900
O635        O  0.53570503  0.56154685  0.44019452    -0.86900
O636        O  0.58487931  0.53539259  0.51658599    -0.86600
O637        O  0.45572987  0.45001412  0.56886311    -0.86400
O638        O  0.43362973  0.54294314  0.56397495    -0.86800
O639        O  0.51099387  0.59374306  0.53560581    -0.86300
O640        O  0.41711999  0.49799236  0.55298432    -0.87300
O641        O  0.54820183  0.58578334  0.50478686    -0.86500
O642        O  0.41618256  0.51155983  0.45844875    -0.86900
O643        O  0.50148850  0.45813497  0.58490756    -0.86600
O644        O  0.57697221  0.50306936  0.55283856    -0.86300
O645        O  0.48930977  0.55581408  0.42524114    -0.86700
O646        O  0.44884724  0.58507992  0.51892604    -0.87000
O647        O  0.50052763  0.55359112  0.58655364    -0.88300
Zr648      Zr  0.46519420  0.52807416  0.46162052     2.83100
Zr649      Zr  0.52786292  0.48653242  0.54956026     2.83500
Zr650      Zr  0.45206216  0.47529678  0.52287377     2.84100
Zr651      Zr  0.54154245  0.53814417  0.48748991     2.83400
Zr652      Zr  0.47987672  0.55049985  0.53887247     2.84200
O653        O  0.52629214  0.53403782  0.53490497    -1.08900
O654        O  0.44988313  0.52324167  0.50905831    -1.08400
C655        C  0.44122503  0.59215056  0.49365435     1.06300
C656        C  0.52007166  0.54026413  0.60047553     1.08900
C657        C  0.40065326  0.49285361  0.47164575     1.06500
C658        C  0.51526065  0.56433000  0.42167707     1.06800
C659        C  0.59274993  0.52092341  0.53875637     1.06400
C660        C  0.47575952  0.44822634  0.58783517     1.05900
C661        C  0.41455988  0.52255349  0.56495805     1.06400
C662        C  0.53423549  0.60136187  0.52227076     1.05900
H663        H  0.47428291  0.50231773  0.57260446     0.32600
O664        O  0.48112557  0.50299425  0.55311112    -1.30000
H665        H  0.49556183  0.57491760  0.48504267     0.32600
O666        O  0.49529383  0.55527498  0.49120121    -1.31400
O667        O  0.05512792  0.96176290  0.02937904    -0.86800
O668        O  0.00121755  0.04509125  0.90329031    -0.87000
O669        O  0.03028513  0.95326985  0.93458034    -0.88600
O670        O  0.07743839  0.03001420  0.96602888    -0.87400
O671        O  0.06747218  0.06617709  0.99760708    -0.87000
O672        O  0.98500089  0.93566819  0.94185475    -0.88400
O673        O  0.03862975  0.01509904  0.91119569    -0.86800
O674        O  0.06697583  0.96782477  0.98264299    -0.86400
Zr675      Zr  0.03454116  0.99936587  0.96035269     2.84300
O676        O  0.01815558  0.04617867  0.96373689    -1.08400
O677        O  0.00589499  0.96864701  0.98776526    -1.09100
C678        C  0.07235495  0.95881828  0.00780181     1.06300
C679        C  0.02349587  0.03135504  0.89521980     1.06200
C680        C  0.01044222  0.93386742  0.93161145     1.09200
C681        C  0.08412332  0.05263808  0.98067273     1.07000
H682        H  0.98822980  0.99355383  0.92318041     0.32600
O683        O  0.98814991  0.00003488  0.94277222    -1.29300
H684        H  0.05494349  0.01444110  0.01543451     0.32200
O685        O  0.03565396  0.01467472  0.00814943    -1.31000
O686        O  0.92470239  0.06868932  0.94849263    -0.86800
O687        O  0.97763278  0.98460466  0.07882855    -0.88300
O688        O  0.93704963  0.97682045  0.92221779    -0.86900
O689        O  0.01704144  0.10420226  0.98128449    -0.86900
O690        O  0.04325027  0.05350822  0.05862628    -0.86600
O691        O  0.96075078  0.92614652  0.99883154    -0.86400
O692        O  0.90250448  0.99925936  0.02052964    -0.86800
O693        O  0.94567521  0.07818990  0.04616719    -0.86300
O694        O  0.90976686  0.96567722  0.98603095    -0.87300
O695        O  0.99201316  0.09429325  0.04158346    -0.86500
O696        O  0.94083511  0.02418826  0.91150819    -0.86900
O697        O  0.99046929  0.93459312  0.03725157    -0.86600
O698        O  0.03695367  0.00657026  0.07141246    -0.86300
O699        O  0.98485254  0.09591412  0.94556166    -0.86700
O700        O  0.90738167  0.05769785  0.99319907    -0.87000
O701        O  0.94130370  0.01576948  0.07026200    -0.88300
Zr702      Zr  0.97136945  0.04645314  0.94637908     2.83100
Zr703      Zr  0.00743520  0.98370013  0.03551891     2.83500
Zr704      Zr  0.95901676  0.96991708  0.97018090     2.84100
Zr705      Zr  0.01843118  0.06112833  0.01195267     2.83400
Zr706      Zr  0.94320112  0.03195769  0.02104254     2.84200
O707        O  0.98979393  0.03023703  0.03903104    -1.08900
O708        O  0.94195554  0.01634871  0.97348241    -1.08400
C709        C  0.90501995  0.06855169  0.96779679     1.06300
C710        C  0.95504612  0.99829098  0.08633090     1.08900
C711        C  0.93315342  0.99858305  0.90546080     1.06500
C712        C  0.00250456  0.11214732  0.95907053     1.06800
C713        C  0.04691765  0.03191830  0.07575333     1.06400
C714        C  0.97369690  0.91862795  0.02207379     1.05900
C715        C  0.89452810  0.97745583  0.00562881     1.06400
C716        C  0.96600183  0.09679227  0.05020710     1.05900
H717        H  0.94883147  0.97284881  0.02962520     0.32600
O718        O  0.96057348  0.98535127  0.01801479    -1.30000
H719        H  0.96433754  0.08129209  0.99428493     0.32600
O720        O  0.97188162  0.06229490  0.99374709    -1.31400
C721        C  0.48643154  0.39500521  0.24579293     0.01000
C722        C  0.45863295  0.39730472  0.25725326     0.03800
C723        C  0.45362523  0.41514547  0.28083148    -0.12200
C724        C  0.47664878  0.42865217  0.29487921     0.23100
C725        C  0.50463467  0.42509639  0.28455777    -0.12800
C726        C  0.50957934  0.40776080  0.26049657     0.04600
C727        C  0.47221613  0.44159258  0.32352190     0.27000
C728        C  0.46891824  0.47117621  0.32684630    -0.13500
C729        C  0.46848161  0.48331067  0.35455775     0.05100
C730        C  0.47131534  0.46562445  0.37901210    -0.09400
C731        C  0.47036915  0.43566739  0.37523866     0.05900
C732        C  0.47152688  0.42377431  0.34772939    -0.13800
Br733      Br  0.53635260  0.44239181  0.30475878    -0.05900
Br734      Br  0.42791213  0.37301906  0.24357712    -0.00300
Br735      Br  0.46385060  0.52385003  0.35831716     0.00200
Br736      Br  0.47241137  0.38281493  0.34314579    -0.04200
Br737      Br  0.54809688  0.39707876  0.25125411     0.00300
Br738      Br  0.41540375  0.41967491  0.29530066    -0.03500
Br739      Br  0.46473166  0.49466542  0.29324143    -0.04400
Br740      Br  0.46528084  0.41039499  0.40747013    -0.00400
C741        C  0.48741645  0.38391014  0.75791020     0.01000
C742        C  0.50720834  0.38059176  0.73533503     0.03800
C743        C  0.50119021  0.39095401  0.70774493    -0.12200
C744        C  0.47506369  0.40426586  0.70219011     0.23100
C745        C  0.45615808  0.40944257  0.72496021    -0.12800
C746        C  0.46306853  0.40065687  0.75296447     0.04600
C747        C  0.46935808  0.41574845  0.67309414     0.27000
C748        C  0.47276474  0.44514968  0.66800050    -0.13500
C749        C  0.47064043  0.45575563  0.64002973     0.05100
C750        C  0.46863243  0.43690595  0.61661427    -0.09400
C751        C  0.46273517  0.40779733  0.62170919     0.05900
C752        C  0.46229322  0.39736938  0.65012285    -0.13800
Br753      Br  0.42069838  0.42864767  0.71763731    -0.05900
Br754      Br  0.54396285  0.36435435  0.74246040    -0.00300
Br755      Br  0.46807591  0.49626843  0.63395564     0.00200
Br756      Br  0.45231240  0.35809751  0.65782531    -0.04200
Br757      Br  0.44050547  0.41448636  0.78408025     0.00300
Br758      Br  0.52915494  0.38763767  0.67757006    -0.03500
Br759      Br  0.48184126  0.47085927  0.69906711    -0.04400
Br760      Br  0.45537650  0.38242152  0.59015628    -0.00400
C761        C  0.96990106  0.88912677  0.03232425     0.01000
C762        C  0.95508785  0.88361996  0.05801738     0.03800
C763        C  0.95652381  0.85655687  0.07089296    -0.12200
C764        C  0.97424646  0.83564060  0.05905444     0.23100
C765        C  0.98793614  0.84070881  0.03267775    -0.12800
C766        C  0.98493209  0.86713312  0.01895433     0.04600
C767        C  0.98073703  0.80962164  0.07568415     0.27000
C768        C  0.00433999  0.80973251  0.09419246    -0.13500
C769        C  0.01109869  0.78509791  0.10977080     0.05100
C770        C  0.99302495  0.76063620  0.10887939    -0.09400
C771        C  0.96916122  0.76087134  0.09013429     0.05900
C772        C  0.96346314  0.78508109  0.07324831    -0.13800
Br773      Br  0.01238062  0.81222780  0.01641499    -0.05900
Br774      Br  0.93387067  0.91351170  0.07608337    -0.00300
Br775      Br  0.04615038  0.78515943  0.13100971     0.00200
Br776      Br  0.93117682  0.78547879  0.04751416    -0.04200
Br777      Br  0.00278706  0.87383168  0.98269062     0.00300
Br778      Br  0.93526855  0.84835815  0.10533327    -0.03500
Br779      Br  0.02668299  0.84436178  0.09913186    -0.04400
Br780      Br  0.94267788  0.72949303  0.08802348    -0.00400
C781        C  0.95942628  0.12464740  0.06336374     0.01000
C782        C  0.96275059  0.12898377  0.09294638     0.03800
C783        C  0.96799440  0.15672878  0.10361790    -0.12200
C784        C  0.96710845  0.18055533  0.08501363     0.23100
C785        C  0.95999314  0.17626089  0.05595839    -0.12800
C786        C  0.95641342  0.14839962  0.04523985     0.04600
C787        C  0.97223527  0.21005586  0.09626830     0.27000
C788        C  0.95117211  0.22334758  0.11278105    -0.13500
C789        C  0.95683227  0.24995223  0.12576195     0.10700
C790        C  0.98308359  0.26455382  0.12110759    -0.09400
C791        C  0.00284980  0.25250146  0.10193948     0.05900
C792        C  0.99800644  0.22491758  0.09058416    -0.13800
Br793      Br  0.95593601  0.20842218  0.03060575    -0.05900
Br794      Br  0.95746008  0.09722219  0.11864893    -0.00300
Br795      Br  0.92809173  0.26618973  0.14982632     0.00200
Br796      Br  0.02732855  0.20685568  0.06840318    -0.04200
Br797      Br  0.94686369  0.14240979  0.00566197     0.00300
Br798      Br  0.97809865  0.16184759  0.14331665    -0.03500
Br799      Br  0.91445521  0.20480637  0.11770355    -0.04400
Br800      Br  0.03649393  0.27338471  0.09078440    -0.00400
C801        C  0.50947929  0.62981593  0.25064252     0.01000
C802        C  0.48600865  0.62385434  0.26876543     0.03800
C803        C  0.49002051  0.60964921  0.29503362    -0.12200
C804        C  0.51779201  0.60422329  0.30504428     0.23100
C805        C  0.54126818  0.60992501  0.28704214    -0.12800
C806        C  0.53692565  0.62126665  0.25937027     0.04600
C807        C  0.52201714  0.59483939  0.33528439     0.27000
C808        C  0.51724021  0.61429197  0.35769409    -0.13500
C809        C  0.51517616  0.60454351  0.38612936     0.05100
C810        C  0.52180872  0.57616832  0.39296582    -0.09400
C811        C  0.52948341  0.55734295  0.37077668     0.05900
C812        C  0.52834576  0.56629443  0.34192403    -0.13800
Br813      Br  0.57943318  0.60405759  0.30117786    -0.05900
Br814      Br  0.44842730  0.63669438  0.25878606    -0.00300
Br815      Br  0.49994270  0.62925950  0.41476412     0.00200
Br816      Br  0.53312805  0.53900350  0.31152129    -0.04200
Br817      Br  0.56873685  0.62519400  0.23383329     0.00300
Br818      Br  0.45747848  0.59815438  0.31782542    -0.03500
Br819      Br  0.51273098  0.65426009  0.34921471    -0.04400
Br820      Br  0.53890769  0.51844052  0.37976867    -0.00400
C821        C  0.52889463  0.55299490  0.62840397     0.01000
C822        C  0.53350090  0.53609054  0.65311692     0.03800
C823        C  0.53339061  0.54899169  0.68038435    -0.12200
C824        C  0.53038651  0.57868606  0.68273391     0.23100
C825        C  0.53178948  0.59579093  0.65813593    -0.12800
C826        C  0.53076493  0.58303828  0.63105078     0.04600
C827        C  0.52291457  0.59198369  0.71035729     0.27000
C828        C  0.49463791  0.60061129  0.71501061    -0.13500
C829        C  0.48807581  0.61730068  0.73902721     0.05100
C830        C  0.50920555  0.62316583  0.75989542    -0.09400
C831        C  0.53647608  0.61124408  0.75671464     0.05900
C832        C  0.54390268  0.59758573  0.73110957    -0.13800
Br833      Br  0.53420335  0.63680437  0.66186001    -0.05900
Br834      Br  0.54038225  0.49574557  0.65040504    -0.00300
Br835      Br  0.45015331  0.63218821  0.74280694     0.00200
Br836      Br  0.58324103  0.58872852  0.72343261    -0.04200
Br837      Br  0.53299667  0.60729247  0.59796257     0.00300
Br838      Br  0.53659343  0.52622331  0.71461555    -0.03500
Br839      Br  0.46518974  0.59040328  0.68773196    -0.04400
Br840      Br  0.56382096  0.61253399  0.78708189    -0.00400
C841        C  0.00484550  0.14214137  0.94802321     0.01000
C842        C  0.01197744  0.16540589  0.96629715     0.03800
C843        C  0.00973348  0.19371408  0.95627399    -0.12200
C844        C  0.00037544  0.19915141  0.92818098     0.23100
C845        C  0.99400209  0.17631436  0.90971798    -0.12800
C846        C  0.99711057  0.14808082  0.91906173     0.04600
C847        C  0.00028367  0.22854749  0.91628143     0.27000
C848        C  0.97642518  0.24617452  0.91961470    -0.13500
C849        C  0.97422030  0.27141248  0.90332458     0.05100
C850        C  0.99501843  0.27815856  0.88246660    -0.09400
C851        C  0.01981102  0.26128461  0.88058801     0.05900
C852        C  0.02265672  0.23706356  0.89799205    -0.13800
Br853      Br  0.98126999  0.18403225  0.87099773    -0.05900
Br854      Br  0.02506712  0.15956995  0.00506731    -0.00300
Br855      Br  0.94211284  0.29583852  0.90881075     0.00200
Br856      Br  0.05651419  0.21416825  0.89561065    -0.04200
Br857      Br  0.99263750  0.11837849  0.89042882     0.00300
Br858      Br  0.01973489  0.22536512  0.98081721    -0.03500
Br859      Br  0.94595097  0.23464945  0.94500958    -0.04400
Br860      Br  0.05035298  0.27111581  0.85437760    -0.00400
C861        C  0.01695229  0.90657409  0.91650851     0.01000
C862        C  0.04039209  0.88986520  0.92524285     0.03800
C863        C  0.04200867  0.86096381  0.91696496    -0.12200
C864        C  0.02205029  0.84927759  0.89757852     0.23100
C865        C  0.00051959  0.86670451  0.88637442    -0.12800
C866        C  0.99697918  0.89459061  0.89689254     0.04600
C867        C  0.02245659  0.81834771  0.88999794     0.27000
C868        C  0.04137204  0.80831575  0.86904258    -0.13500
C869        C  0.03877134  0.78009438  0.85898748     0.05100
C870        C  0.01651509  0.76184360  0.86923355    -0.09400
C871        C  0.99926591  0.77123052  0.89196093     0.05900
C872        C  0.00266056  0.79919283  0.90265812    -0.13800
Br873      Br  0.97538585  0.85190490  0.85695331    -0.05900
Br874      Br  0.06829534  0.90470312  0.95186097    -0.00300
Br875      Br  0.06584157  0.76685893  0.83081035     0.00200
Br876      Br  0.97989212  0.81156821  0.93452616    -0.04200
Br877      Br  0.96349850  0.91524429  0.88536024     0.00300
Br878      Br  0.06983725  0.83641054  0.93429492    -0.03500
Br879      Br  0.07032775  0.83359526  0.85349777    -0.04400
Br880      Br  0.96925412  0.74695685  0.90689142    -0.00400
C881        C  0.14901859  0.44173776  0.93742387     0.01000
C882        C  0.12097635  0.45262328  0.93431470     0.03800
C883        C  0.10017084  0.43700526  0.91914721    -0.12200
C884        C  0.10681722  0.41045944  0.90735893     0.23100
C885        C  0.13415163  0.39922035  0.91042928    -0.12800
C886        C  0.15520990  0.41447125  0.92559067     0.04600
C887        C  0.08448254  0.39351637  0.89286719     0.27000
C888        C  0.07053324  0.37153359  0.90778627    -0.13500
C889        C  0.04987416  0.35453356  0.89391653     0.05100
C890        C  0.04110240  0.36104152  0.86536436    -0.09400
C891        C  0.05477547  0.38450983  0.85124154     0.05900
C892        C  0.07734639  0.39945883  0.86443471    -0.13800
Br893      Br  0.14227213  0.36237266  0.89390186    -0.05900
Br894      Br  0.10963787  0.48875727  0.95022866    -0.00300
Br895      Br  0.03636893  0.32189799  0.91514748     0.00200
Br896      Br  0.09877469  0.42851656  0.84382948    -0.04200
Br897      Br  0.19150695  0.39592042  0.93091165     0.00300
Br898      Br  0.06215013  0.45180841  0.91429042    -0.03500
Br899      Br  0.08050605  0.36470263  0.94752256    -0.04400
Br900      Br  0.04135937  0.39997023  0.81567530    -0.00400
C901        C  0.14914978  0.44256091  0.06508498     0.01000
C902        C  0.12910698  0.42726223  0.04825404     0.03800
C903        C  0.10778118  0.41051903  0.06138634    -0.12200
C904        C  0.10721417  0.40783874  0.09133665     0.23100
C905        C  0.12723831  0.42278107  0.10830750    -0.12800
C906        C  0.14810307  0.44027066  0.09524301     0.04600
C907        C  0.08585136  0.38876960  0.10493088     0.27000
C908        C  0.05987776  0.39980884  0.11451226    -0.13500
C909        C  0.03984104  0.38174808  0.12795955     0.05100
C910        C  0.04446231  0.35201581  0.12913515    -0.09400
C911        C  0.07187976  0.34181102  0.12269468     0.05900
C912        C  0.09225441  0.35997368  0.10982875    -0.13800
Br913      Br  0.12580391  0.41921484  0.14948332    -0.05900
Br914      Br  0.13210491  0.42681842  0.00722236    -0.00300
Br915      Br  0.00859636  0.39871873  0.14842604     0.00200
Br916      Br  0.12941261  0.34585550  0.09989757    -0.04200
Br917      Br  0.17480205  0.46135173  0.11884933     0.00300
Br918      Br  0.07915532  0.39116288  0.03847814    -0.03500
Br919      Br  0.05223582  0.43986219  0.10977522    -0.04400
Br920      Br  0.08347379  0.30490790  0.13612959    -0.00400
C921        C  0.15429629  0.58389479  0.06543948     0.01000
C922        C  0.14736399  0.57961734  0.09449898     0.03800
C923        C  0.12791054  0.59776860  0.10815146    -0.12200
C924        C  0.11278688  0.61802892  0.09195631     0.23100
C925        C  0.11860256  0.62107490  0.06244003    -0.12800
C926        C  0.14022898  0.60503978  0.04966953     0.04600
C927        C  0.09165127  0.63702694  0.10578361     0.27000
C928        C  0.06509362  0.62629586  0.11536330    -0.13500
C929        C  0.04524090  0.64484858  0.12780427     0.05100
C930        C  0.04971109  0.67476378  0.12635344    -0.09400
C931        C  0.07654043  0.68523722  0.11724273     0.05900
C932        C  0.09791724  0.66631999  0.10864498    -0.13800
Br933      Br  0.09699874  0.64728102  0.03935549    -0.05900
Br934      Br  0.16303780  0.54782745  0.11498094    -0.00300
Br935      Br  0.01331131  0.62863393  0.14853900     0.00200
Br936      Br  0.13633421  0.68017282  0.10204036    -0.04200
Br937      Br  0.15167068  0.61307783  0.01092396     0.00300
Br938      Br  0.12321402  0.59592446  0.14916030    -0.03500
Br939      Br  0.05565627  0.58632755  0.11107803    -0.04400
Br940      Br  0.08468457  0.72536835  0.11725885    -0.00400
C941        C  0.05174634  0.66968712  0.85974999     0.01000
C942        C  0.05210992  0.64039769  0.85248050     0.03800
C943        C  0.07315955  0.62242969  0.86384231    -0.12200
C944        C  0.09225202  0.63268628  0.88486459     0.23100
C945        C  0.09084799  0.66138719  0.89354387    -0.12800
C946        C  0.07133890  0.68001497  0.88048850     0.04600
C947        C  0.11243063  0.61294570  0.89943877     0.27000
C948        C  0.10395953  0.59853396  0.92450516    -0.13500
C949        C  0.12350799  0.58175462  0.93996702     0.05100
C950        C  0.15224591  0.57895927  0.93026736    -0.09400
C951        C  0.15960306  0.59157816  0.90337424     0.05900
C952        C  0.14001676  0.60890092  0.88857642    -0.13800
Br953      Br  0.11518443  0.67482247  0.92420756    -0.05900
Br954      Br  0.02122301  0.62358446  0.83066018    -0.00300
Br955      Br  0.10938258  0.56320366  0.97426932     0.00200
Br956      Br  0.15065023  0.62711514  0.85293810    -0.04200
Br957      Br  0.07192117  0.71949318  0.89152140     0.00300
Br958      Br  0.07550462  0.58346380  0.85109449    -0.03500
Br959      Br  0.06501197  0.60208571  0.93750196    -0.04400
Br960      Br  0.19534025  0.58357944  0.88455307    -0.00400
C961        C  0.33430466  0.44518795  0.92539252     0.01000
C962        C  0.33498722  0.41518596  0.92311424     0.03800
C963        C  0.35710235  0.40222003  0.90787552    -0.12200
C964        C  0.37617007  0.41902623  0.89150783     0.23100
C965        C  0.37325345  0.44888865  0.89090111    -0.12800
C966        C  0.35254642  0.46188417  0.90803905     0.04600
C967        C  0.39942634  0.40526987  0.87531799     0.27000
C968        C  0.42761719  0.40787982  0.88519801    -0.13500
C969        C  0.44989540  0.39532625  0.86984921     0.05100
C970        C  0.44395312  0.37731391  0.84619906    -0.09400
C971        C  0.41528930  0.37406053  0.83683740     0.05900
C972        C  0.39340512  0.38916124  0.85054051    -0.13800
Br973      Br  0.39772502  0.47205230  0.86678849    -0.05900
Br974      Br  0.30448982  0.39154949  0.93793626    -0.00300
Br975      Br  0.48810362  0.40365884  0.88206702     0.00200
Br976      Br  0.35521070  0.38859010  0.83502671    -0.04200
Br977      Br  0.34658621  0.50219734  0.90483562     0.00300
Br978      Br  0.36215457  0.36152975  0.91069550    -0.03500
Br979      Br  0.43554578  0.42808893  0.92051919    -0.04400
Br980      Br  0.40574455  0.35058026  0.80405946    -0.00400
C981        C  0.44997461  0.63897178  0.84117974     0.01000
C982        C  0.44050561  0.65301322  0.86629761     0.03800
C983        C  0.41826363  0.64127037  0.88287329    -0.12200
C984        C  0.40541882  0.61522464  0.87497074     0.23100
C985        C  0.41516037  0.60058792  0.85065996    -0.12800
C986        C  0.43782280  0.61199282  0.83417782     0.04600
C987        C  0.38394144  0.60176531  0.89422569     0.27000
C988        C  0.39264005  0.58110329  0.91403690    -0.13500
C989        C  0.37263714  0.56783820  0.93239978     0.05100
C990        C  0.34348745  0.57633289  0.93201511    -0.09400
C991        C  0.33593106  0.59972281  0.91410214     0.05900
C992        C  0.35562404  0.61101617  0.89421244    -0.13800
Br993      Br  0.39744745  0.56451598  0.84048523    -0.05900
Br994      Br  0.46025657  0.68646480  0.88077096    -0.00300
Br995      Br  0.38689099  0.53820206  0.95729881     0.00200
Br996      Br  0.34394982  0.63936566  0.86669171    -0.04200
Br997      Br  0.45233798  0.58938154  0.80323784     0.00300
Br998      Br  0.40605207  0.66021605  0.91741992    -0.03500
Br999      Br  0.43258151  0.57133680  0.91591363    -0.04400
Br1000     Br  0.30008590  0.61937148  0.91818224    -0.00400
C1001       C  0.34458638  0.56668064  0.07618579     0.01000
C1002       C  0.37102426  0.57670183  0.06521598     0.03800
C1003       C  0.39206168  0.58814000  0.08380186    -0.12200
C1004       C  0.38623727  0.59174006  0.11329964     0.23100
C1005       C  0.35983995  0.58188489  0.12422576    -0.12800
C1006       C  0.33999603  0.56794434  0.10612380     0.04600
C1007       C  0.40743440  0.60673155  0.13239974     0.27000
C1008       C  0.42219711  0.59197548  0.15406773    -0.13500
C1009       C  0.44175263  0.60656423  0.17224013     0.05100
C1010       C  0.44949349  0.63551939  0.16677987    -0.09400
C1011       C  0.43604157  0.64931034  0.14316089     0.05900
C1012       C  0.41354904  0.63584742  0.12814193    -0.13800
Br1013     Br  0.35008696  0.58861677  0.16381576    -0.05900
Br1014     Br  0.37839747  0.57619778  0.02460095    -0.00300
Br1015     Br  0.45678376  0.58600486  0.20451116     0.00200
Br1016     Br  0.39093658  0.65752883  0.10138691    -0.04200
Br1017     Br  0.30811527  0.54801028  0.12318923     0.00300
Br1018     Br  0.42896341  0.59916921  0.06867556    -0.03500
Br1019     Br  0.41624193  0.55133218  0.15822069    -0.04400
Br1020     Br  0.45090046  0.68442072  0.12680030    -0.00400
C1021       C  0.44406055  0.37673946  0.15762449     0.01000
C1022       C  0.42933315  0.40212319  0.16516019     0.03800
C1023       C  0.40646052  0.41170004  0.14836091    -0.12200
C1024       C  0.39973648  0.39829493  0.12238851     0.23100
C1025       C  0.41459241  0.37395773  0.11391933    -0.12800
C1026       C  0.43648662  0.36305566  0.13138105     0.04600
C1027       C  0.37891518  0.41192525  0.10290256     0.27000
C1028       C  0.35035164  0.40261235  0.10241266    -0.13500
C1029       C  0.33013344  0.41710052  0.08569885     0.05100
C1030       C  0.33821060  0.44219090  0.07013505    -0.09400
C1031       C  0.36727436  0.45148046  0.07113340     0.05900
C1032       C  0.38737622  0.43614005  0.08712312    -0.13800
Br1033     Br  0.40512921  0.35613049  0.07777559    -0.05900
Br1034     Br  0.44013750  0.42657988  0.19656555    -0.00300
Br1035     Br  0.29188039  0.40096955  0.08440630     0.00200
Br1036     Br  0.42667894  0.44926307  0.08912968    -0.04200
Br1037     Br  0.45780296  0.33133799  0.11669202     0.00300
Br1038     Br  0.38406782  0.44401863  0.16035560    -0.03500
Br1039     Br  0.33885443  0.37069892  0.12619192    -0.04400
Br1040     Br  0.38048861  0.48630142  0.05280646    -0.00400
C1041       C  0.64972764  0.44765269  0.06768978     0.01000
C1042       C  0.62274315  0.44026653  0.05577654     0.03800
C1043       C  0.60123624  0.42761079  0.07300732    -0.12200
C1044       C  0.60643458  0.42153849  0.10215617     0.23100
C1045       C  0.63348497  0.42797643  0.11386703    -0.12800
C1046       C  0.65485637  0.44124353  0.09699015     0.04600
C1047       C  0.58344538  0.40860837  0.12060359     0.27000
C1048       C  0.56959128  0.42512557  0.14139831    -0.13500
C1049       C  0.54938862  0.41251040  0.16026375     0.05100
C1050       C  0.54035173  0.38351494  0.15659444    -0.09400
C1051       C  0.55229149  0.36826565  0.13313147     0.05900
C1052       C  0.57523305  0.37989456  0.11719923    -0.13800
Br1053     Br  0.64126355  0.41844213  0.15336962    -0.05900
Br1054     Br  0.61497739  0.44608659  0.01551220    -0.00300
Br1055     Br  0.53615605  0.43613095  0.19112593     0.00200
Br1056     Br  0.59611543  0.35611492  0.09100144    -0.04200
Br1057     Br  0.69048186  0.45186095  0.11527644     0.00300
Br1058     Br  0.56427520  0.41879257  0.05668181    -0.03500
Br1059     Br  0.57861251  0.46543927  0.14388896    -0.04400
Br1060     Br  0.53541398  0.33316135  0.11898621    -0.00400
C1061       C  0.65208979  0.57224047  0.07507546     0.01000
C1062       C  0.63195618  0.59069983  0.06260658     0.03800
C1063       C  0.61303963  0.60576189  0.08009842    -0.12200
C1064       C  0.61091542  0.59930540  0.10949216     0.23100
C1065       C  0.62853466  0.57825516  0.12141652    -0.12800
C1066       C  0.64968306  0.56539539  0.10445800     0.04600
C1067       C  0.58915732  0.61385612  0.12724688     0.27000
C1068       C  0.59719936  0.63619691  0.14581312    -0.13500
C1069       C  0.57638658  0.65069137  0.16185447     0.05100
C1070       C  0.54696263  0.64338100  0.15865577    -0.09400
C1071       C  0.53921997  0.62261509  0.13798055     0.05900
C1072       C  0.56010787  0.60706048  0.12349501    -0.13800
Br1073     Br  0.62291989  0.56645792  0.16064548    -0.05900
Br1074     Br  0.62878783  0.59463151  0.02151915    -0.00300
Br1075     Br  0.58931496  0.68043469  0.18764384     0.00200
Br1076     Br  0.54879414  0.57677998  0.09758656    -0.04200
Br1077     Br  0.67321570  0.53615130  0.12069183     0.00300
Br1078     Br  0.59034736  0.63580471  0.06385688    -0.03500
Br1079     Br  0.63692262  0.64745207  0.14830570    -0.04400
Br1080     Br  0.50045473  0.61807979  0.12539054    -0.00400
C1081       C  0.65559032  0.58477535  0.93119511     0.01000
C1082       C  0.64306912  0.57110148  0.90735783     0.03800
C1083       C  0.62388883  0.58581295  0.88978554    -0.12200
C1084       C  0.61688604  0.61417724  0.89620630     0.23100
C1085       C  0.63046926  0.62833851  0.91917189    -0.12800
C1086       C  0.65030960  0.61381427  0.93622103     0.04600
C1087       C  0.59366290  0.62809656  0.88006103     0.27000
C1088       C  0.59965620  0.64508123  0.85594591    -0.13500
C1089       C  0.57720738  0.65690484  0.83991376     0.05100
C1090       C  0.54830036  0.64988493  0.84674755    -0.09400
C1091       C  0.54273468  0.63273167  0.87122208     0.05900
C1092       C  0.56528967  0.62273234  0.88816850    -0.13800
Br1093     Br  0.62154020  0.66743523  0.92744543    -0.05900
Br1094     Br  0.65366207  0.53288781  0.89759615    -0.00300
Br1095     Br  0.58720362  0.68057810  0.80729468     0.00200
Br1096     Br  0.55762157  0.60123139  0.92278670    -0.04200
Br1097     Br  0.67085706  0.63386191  0.96588560     0.00300
Br1098     Br  0.60727569  0.56732738  0.85668670    -0.03500
Br1099     Br  0.63881995  0.65072349  0.84419785    -0.04400
Br1100     Br  0.50458505  0.62274539  0.88287429    -0.00400
C1101       C  0.54224903  0.37869168  0.84476983     0.01000
C1102       C  0.54831060  0.37066483  0.87349566     0.03800
C1103       C  0.56817670  0.38652230  0.88987633    -0.12200
C1104       C  0.58383790  0.40908178  0.87732737     0.23100
C1105       C  0.57871519  0.41658128  0.84863617    -0.12800
C1106       C  0.55714860  0.40238201  0.83284061     0.04600
C1107       C  0.60597088  0.42451958  0.89444138     0.27000
C1108       C  0.59976114  0.45065746  0.90764813    -0.13500
C1109       C  0.61992604  0.46403566  0.92586196     0.05100
C1110       C  0.64729913  0.45189029  0.92989662    -0.09400
C1111       C  0.65274151  0.42495070  0.91734928     0.05900
C1112       C  0.63251818  0.41185628  0.89918859    -0.13800
Br1113     Br  0.60188877  0.44607429  0.83095790    -0.05900
Br1114     Br  0.52755687  0.33986032  0.89207944    -0.00300
Br1115     Br  0.60850994  0.49825770  0.94563397     0.00200
Br1116     Br  0.64123076  0.37644270  0.88023554    -0.04200
Br1117     Br  0.54848194  0.41618132  0.79508860     0.00300
Br1118     Br  0.57349399  0.37808335  0.93005783    -0.03500
Br1119     Br  0.56350487  0.46828537  0.90024661    -0.04400
Br1120     Br  0.68630681  0.40367496  0.92715859    -0.00400
C1121       C  0.83978508  0.44086657  0.06133319     0.01000
C1122       C  0.83895636  0.41072023  0.05997733     0.03800
C1123       C  0.86035810  0.39461770  0.07340918    -0.12200
C1124       C  0.88206208  0.40827432  0.08946960     0.23100
C1125       C  0.88235522  0.43821008  0.09179427    -0.12800
C1126       C  0.86153636  0.45444261  0.07759419     0.04600
C1127       C  0.90488286  0.39106679  0.10332890     0.27000
C1128       C  0.89938168  0.37638172  0.12894075    -0.13500
C1129       C  0.91965195  0.35759078  0.14049170     0.05100
C1130       C  0.94757173  0.35539662  0.12822797    -0.09400
C1131       C  0.95292124  0.37118308  0.10231388     0.05900
C1132       C  0.93158205  0.38849111  0.09013411    -0.13800
Br1133     Br  0.91161738  0.45688728  0.11437661    -0.05900
Br1134     Br  0.80909111  0.39108222  0.03904874    -0.00300
Br1135     Br  0.90604432  0.33305298  0.17106523     0.00200
Br1136     Br  0.93878276  0.40979559  0.05519554    -0.04200
Br1137     Br  0.86227255  0.49527908  0.08176360     0.00300
Br1138     Br  0.86064988  0.35371558  0.06898187    -0.03500
Br1139     Br  0.86378843  0.38292186  0.14862741    -0.04400
Br1140     Br  0.98865844  0.37113060  0.08180332    -0.00400
C1141       C  0.83674551  0.44740774  0.92733101     0.01000
C1142       C  0.83845573  0.44850283  0.89717289     0.03800
C1143       C  0.85774726  0.43097892  0.88262039    -0.12200
C1144       C  0.87585065  0.41303447  0.89829937     0.23100
C1145       C  0.87422604  0.41202618  0.92834423    -0.12800
C1146       C  0.85469255  0.42910538  0.94282464     0.04600
C1147       C  0.89806976  0.39648214  0.88371403     0.27000
C1148       C  0.89178947  0.36909567  0.87306066    -0.13500
C1149       C  0.91359771  0.35261646  0.86117363     0.05100
C1150       C  0.94204780  0.36305964  0.86104712    -0.09400
C1151       C  0.94811760  0.39068004  0.87169650     0.05900
C1152       C  0.92613664  0.40736270  0.88283339    -0.13800
Br1153     Br  0.89906857  0.38719164  0.94960831    -0.05900
Br1154     Br  0.81588998  0.47531277  0.87596278    -0.00300
Br1155     Br  0.90422813  0.31552286  0.84566718     0.00200
Br1156     Br  0.93438284  0.44499435  0.89788996    -0.04200
Br1157     Br  0.85233701  0.42673978  0.98392498     0.00300
Br1158     Br  0.85956278  0.43151447  0.84133702    -0.03500
Br1159     Br  0.85348249  0.35380789  0.87611653    -0.04400
Br1160     Br  0.98601528  0.40674048  0.87029381    -0.00400
C1161       C  0.84386998  0.58601927  0.93345681     0.01000
C1162       C  0.84141244  0.61611189  0.93187525     0.03800
C1163       C  0.86474940  0.63336497  0.92317872    -0.12200
C1164       C  0.88862237  0.62122105  0.90977398     0.23100
C1165       C  0.88946841  0.59114201  0.90741982    -0.12800
C1166       C  0.86816265  0.57365713  0.92058192     0.04600
C1167       C  0.91164663  0.64018546  0.89681249     0.27000
C1168       C  0.90516651  0.65908664  0.87426466    -0.13500
C1169       C  0.92595304  0.67853713  0.86380654     0.05100
C1170       C  0.95520417  0.67580880  0.87119135    -0.09400
C1171       C  0.96178589  0.65638890  0.89372760     0.05900
C1172       C  0.93981874  0.64033737  0.90754970    -0.13800
Br1173     Br  0.91900771  0.57394794  0.88476510    -0.05900
Br1174     Br  0.80554652  0.63458406  0.93824981    -0.00300
Br1175     Br  0.91295478  0.71101213  0.84223331     0.00200
Br1176     Br  0.94812111  0.61893417  0.94188232    -0.04200
Br1177     Br  0.87093569  0.53273798  0.91791875     0.00300
Br1178     Br  0.86418231  0.67383447  0.93076495    -0.03500
Br1179     Br  0.86796510  0.65771899  0.85646734    -0.04400
Br1180     Br  0.00030409  0.64948830  0.90582447    -0.00400
C1181       C  0.84436204  0.58108214  0.06397254     0.01000
C1182       C  0.86047897  0.60022909  0.04691688     0.03800
C1183       C  0.88085988  0.61855776  0.05955177    -0.12200
C1184       C  0.88658060  0.61664830  0.08918773     0.23100
C1185       C  0.87159237  0.59641981  0.10597985    -0.12800
C1186       C  0.84975062  0.57951127  0.09365157     0.04600
C1187       C  0.90904543  0.63523550  0.10231800     0.27000
C1188       C  0.93770295  0.63105400  0.09519544    -0.13500
C1189       C  0.95870166  0.65105308  0.10341019     0.05100
C1190       C  0.95257122  0.67195148  0.12461164    -0.09400
C1191       C  0.92342937  0.67543233  0.13263541     0.05900
C1192       C  0.90181879  0.65795341  0.12045381    -0.13800
Br1193     Br  0.88199223  0.59099322  0.14557831    -0.05900
Br1194     Br  0.85436320  0.60197103  0.00618837    -0.00300
Br1195     Br  0.99355975  0.65008981  0.08155219     0.00200
Br1196     Br  0.86206954  0.66525234  0.12813017    -0.04200
Br1197     Br  0.82764904  0.55389603  0.11743418     0.00300
Br1198     Br  0.90087641  0.64635219  0.03608763    -0.03500
Br1199     Br  0.94836798  0.59699047  0.07475925    -0.04400
Br1200     Br  0.91166680  0.70637377  0.15718120    -0.00400
C1201       C  0.03129047  0.03239600  0.86476067     0.01000
C1202       C  0.04982814  0.05379706  0.85427746     0.03800
C1203       C  0.05999282  0.05222737  0.82600531    -0.12200
C1204       C  0.05185502  0.02907542  0.80846988     0.23100
C1205       C  0.03155573  0.00898807  0.81815789    -0.12800
C1206       C  0.02192943  0.01015544  0.84655332     0.04600
C1207       C  0.06879287  0.02279587  0.78265354     0.27000
C1208       C  0.06264649  0.03570018  0.75635402    -0.13500
C1209       C  0.08132767  0.03245880  0.73299174     0.05100
C1210       C  0.10580315  0.01500753  0.73554016    -0.09400
C1211       C  0.10988357  0.99983942  0.76156295     0.05900
C1212       C  0.09203590  0.00447192  0.78514005    -0.13800
Br1213     Br  0.01850638  0.97895168  0.79290173    -0.05900
Br1214     Br  0.06354616  0.08344777  0.87945123    -0.00300
Br1215     Br  0.07300187  0.05391464  0.69904256     0.00200
Br1216     Br  0.09973939  0.98614118  0.82148333    -0.04200
Br1217     Br  0.99810013  0.97970038  0.86112992     0.00300
Br1218     Br  0.08640303  0.08072638  0.81165093    -0.03500
Br1219     Br  0.02866221  0.05827230  0.75297038    -0.04400
Br1220     Br  0.13849570  0.97105360  0.76549766    -0.00400
C1221       C  0.06244930  0.03557298  0.10355933     0.01000
C1222       C  0.08352379  0.01580129  0.11157779     0.03800
C1223       C  0.09208007  0.01317223  0.14047534    -0.12200
C1224       C  0.07894156  0.02954499  0.16191912     0.23100
C1225       C  0.05875158  0.05006535  0.15381682    -0.12800
C1226       C  0.05183656  0.05408028  0.12464347     0.04600
C1227       C  0.08805288  0.02687168  0.19256311     0.27000
C1228       C  0.07884811  0.00369833  0.20984294    -0.13500
C1229       C  0.08971004  0.00039009  0.23798132     0.05100
C1230       C  0.10923930  0.02059833  0.24918081    -0.09400
C1231       C  0.11477707  0.04574308  0.23329488     0.05900
C1232       C  0.10610122  0.04788886  0.20458367    -0.13800
Br1233     Br  0.03897614  0.07119840  0.18293021    -0.05900
Br1234     Br  0.10150719  0.99295363  0.08269660    -0.00300
Br1235     Br  0.07722842  0.96886399  0.26134755     0.00200
Br1236     Br  0.12114158  0.07844297  0.18106846    -0.04200
Br1237     Br  0.02801533  0.08503549  0.11362032     0.00300
Br1238     Br  0.12152368  0.98677627  0.15087103    -0.03500
Br1239     Br  0.05243250  0.97587675  0.19447231    -0.04400
Br1240     Br  0.13179097  0.07856155  0.25168531    -0.00400
C1241       C  0.23990756  0.51475708  0.13567810     0.01000
C1242       C  0.24348218  0.48975615  0.15254564     0.03800
C1243       C  0.23515484  0.48947466  0.18148951    -0.12200
C1244       C  0.22282337  0.51367289  0.19366443     0.23100
C1245       C  0.21985429  0.53864321  0.17745478    -0.12800
C1246       C  0.23028814  0.53999857  0.14935419     0.04600
C1247       C  0.21567522  0.51428321  0.22445572     0.27000
C1248       C  0.18794806  0.50743511  0.23367231    -0.13500
C1249       C  0.18050011  0.51081567  0.26268743     0.05100
C1250       C  0.20156640  0.51896836  0.28324496    -0.09400
C1251       C  0.22757436  0.53062940  0.27238928     0.05900
C1252       C  0.23531314  0.52646064  0.24368357    -0.13800
Br1253     Br  0.20056989  0.57094328  0.19384490    -0.05900
Br1254     Br  0.26198832  0.45625333  0.13766534    -0.00300
Br1255     Br  0.14037985  0.51083689  0.27153039     0.00200
Br1256     Br  0.27252270  0.53872242  0.23008462    -0.04200
Br1257     Br  0.23272762  0.57752179  0.13192823     0.00300
Br1258     Br  0.24033526  0.45589202  0.20474094    -0.03500
Br1259     Br  0.15987225  0.49486809  0.20591395    -0.04400
Br1260     Br  0.24950491  0.55840652  0.29357247    -0.00400
C1261       C  0.37153977  0.48867810  0.46015062     0.01000
C1262       C  0.36786478  0.48063722  0.43125462     0.03800
C1263       C  0.34087889  0.48229838  0.41834568    -0.12200
C1264       C  0.31757680  0.49247654  0.43412402     0.23100
C1265       C  0.32084052  0.49930399  0.46325818    -0.12800
C1266       C  0.34770889  0.49687712  0.47636384     0.04600
C1267       C  0.29048928  0.49830834  0.41915677     0.27000
C1268       C  0.28759113  0.52411901  0.40427965    -0.13500
C1269       C  0.26414622  0.52811403  0.38607157     0.05100
C1270       C  0.24263657  0.50676717  0.38365360    -0.09400
C1271       C  0.24462958  0.48180245  0.40054987     0.05900
C1272       C  0.26865791  0.47753215  0.41806783    -0.13800
Br1273     Br  0.28894040  0.51412337  0.48432503    -0.05900
Br1274     Br  0.39988085  0.46782929  0.40908839    -0.00300
Br1275     Br  0.26214153  0.56311996  0.36475952     0.00200
Br1276     Br  0.27218361  0.44313187  0.44044333    -0.04200
Br1277     Br  0.35220995  0.50677484  0.51588144     0.00300
Br1278     Br  0.33600598  0.47219444  0.37852714    -0.03500
Br1279     Br  0.31599058  0.55401867  0.40916845    -0.04400
Br1280     Br  0.21568309  0.45245080  0.39898959    -0.00400
C1281       C  0.80411935  0.48906041  0.27858965     0.01000
C1282       C  0.77975593  0.47473210  0.26714619     0.03800
C1283       C  0.77242767  0.47864209  0.23838030    -0.12200
C1284       C  0.79192079  0.49200604  0.21977671     0.23100
C1285       C  0.81940816  0.49943393  0.22959160    -0.12800
C1286       C  0.82568248  0.49779922  0.25905706     0.04600
C1287       C  0.78414537  0.49569652  0.18939671     0.27000
C1288       C  0.78804261  0.47316121  0.17025558    -0.13500
C1289       C  0.77840723  0.47534729  0.14183362     0.05100
C1290       C  0.76566197  0.50103674  0.13188198    -0.09400
C1291       C  0.76241601  0.52393449  0.15164172     0.05900
C1292       C  0.77120584  0.52088533  0.18030391    -0.13800
Br1293     Br  0.84812933  0.51169768  0.20250887    -0.05900
Br1294     Br  0.75920221  0.44571327  0.28860688    -0.00300
Br1295     Br  0.78390056  0.44235061  0.11779293     0.00200
Br1296     Br  0.76513256  0.55099620  0.20779803    -0.04200
Br1297     Br  0.86447757  0.50405533  0.27166213     0.00300
Br1298     Br  0.73546199  0.46617066  0.22454587    -0.03500
Br1299     Br  0.80682112  0.43911853  0.18363618    -0.04400
Br1300     Br  0.74548843  0.55979020  0.14096066    -0.00400
C1301       C  0.60448107  0.49394878  0.42342474     0.01000
C1302       C  0.61978205  0.52030388  0.41957855     0.03800
C1303       C  0.64859946  0.52051859  0.41170767    -0.12200
C1304       C  0.66089034  0.49592216  0.40040142     0.23100
C1305       C  0.64443538  0.47045223  0.39928784    -0.12800
C1306       C  0.61716418  0.46887662  0.41253291     0.04600
C1307       C  0.69044194  0.49805211  0.38836006     0.27000
C1308       C  0.69560199  0.51504962  0.36394823    -0.13500
C1309       C  0.72368736  0.52064969  0.35464386     0.05100
C1310       C  0.74720476  0.50718414  0.36801331    -0.09400
C1311       C  0.74192015  0.49050620  0.39289983     0.05900
C1312       C  0.71373913  0.48619071  0.40302911    -0.13800
Br1313     Br  0.65918008  0.43805888  0.37906235    -0.05900
Br1314     Br  0.60189983  0.55723783  0.42209874    -0.00300
Br1315     Br  0.72939265  0.54807220  0.32407454     0.00200
Br1316     Br  0.70686096  0.46359376  0.43700644    -0.04200
Br1317     Br  0.59828093  0.43225066  0.41563751     0.00300
Br1318     Br  0.67155351  0.55476328  0.41719418    -0.03500
Br1319     Br  0.66380118  0.53039226  0.34278465    -0.04400
Br1320     Br  0.77243845  0.47262325  0.41345918    -0.00400
C1321       C  0.86369151  0.00398597  0.73733007     0.01000
C1322       C  0.88424256  0.98243841  0.74078855     0.03800
C1323       C  0.89340359  0.97472369  0.76856279    -0.12200
C1324       C  0.88260139  0.98879808  0.79279435     0.23100
C1325       C  0.86321205  0.01099111  0.78927060    -0.12800
C1326       C  0.85543611  0.01967022  0.76175075     0.04600
C1327       C  0.89756146  0.98709443  0.82061786     0.27000
C1328       C  0.88651745  0.97099445  0.84365045    -0.13500
C1329       C  0.89831607  0.97413773  0.87136269     0.05100
C1330       C  0.92041534  0.99448604  0.87632562    -0.09400
C1331       C  0.93028677  0.01153987  0.85282695     0.05900
C1332       C  0.92011919  0.00646238  0.82509672    -0.13800
Br1333     Br  0.84853072  0.03075081  0.82240899    -0.05900
Br1334     Br  0.90251817  0.96552236  0.70826516    -0.00300
Br1335     Br  0.88148498  0.95304678  0.90277723     0.00200
Br1336     Br  0.93583505  0.02765635  0.79279544    -0.04200
Br1337     Br  0.83729932  0.05581819  0.75773656     0.00300
Br1338     Br  0.92153801  0.94562027  0.77390036    -0.03500
Br1339     Br  0.85429039  0.94585049  0.83720390    -0.04400
Br1340     Br  0.95586578  0.04402428  0.85687250    -0.00400
C1341       C  0.87005112  0.00719123  0.24810620     0.01000
C1342       C  0.87272556  0.98006040  0.23527134     0.03800
C1343       C  0.89000324  0.97674339  0.21096996    -0.12200
C1344       C  0.90300316  0.00073882  0.19808946     0.23100
C1345       C  0.90001834  0.02790446  0.21056569    -0.12800
C1346       C  0.88395431  0.03102809  0.23584763     0.04600
C1347       C  0.91712171  0.99768396  0.16984669     0.27000
C1348       C  0.94707944  0.99720172  0.16757032    -0.13500
C1349       C  0.96007065  0.99624304  0.14032639     0.05100
C1350       C  0.94300182  0.99401169  0.11543280    -0.09400
C1351       C  0.91312973  0.99105568  0.11835142     0.05900
C1352       C  0.90019479  0.99448825  0.14513942    -0.13800
Br1353     Br  0.91665928  0.06095249  0.19207398    -0.05900
Br1354     Br  0.85229120  0.94727461  0.25036491    -0.00300
Br1355     Br  0.00092411  0.99922161  0.13746273     0.00200
Br1356     Br  0.85911129  0.99580887  0.14776864    -0.04200
Br1357     Br  0.87912445  0.06820408  0.25254406     0.00300
Br1358     Br  0.89542343  0.93937894  0.19467771    -0.03500
Br1359     Br  0.97003849  0.99800780  0.20186357    -0.04400
Br1360     Br  0.88976150  0.98035472  0.08600236    -0.00400
C1361       C  0.19991271  0.51292108  0.71844663     0.01000
C1362       C  0.21015498  0.48759317  0.73171691     0.03800
C1363       C  0.21490667  0.48650578  0.76150369    -0.12200
C1364       C  0.21226646  0.51114205  0.77817085     0.23100
C1365       C  0.20556988  0.53707161  0.76504897    -0.12800
C1366       C  0.20129801  0.53844201  0.73520785     0.04600
C1367       C  0.21984416  0.51056760  0.80900014     0.27000
C1368       C  0.19907956  0.50308196  0.82949402    -0.13500
C1369       C  0.20614021  0.50312685  0.85871986     0.05100
C1370       C  0.23405257  0.51047390  0.86756623    -0.09400
C1371       C  0.25466937  0.51866355  0.84713545     0.05900
C1372       C  0.24768264  0.51834065  0.81782299    -0.13800
Br1373     Br  0.20352140  0.57111623  0.78831528    -0.05900
Br1374     Br  0.22355281  0.45576757  0.70957213    -0.00300
Br1375     Br  0.17689846  0.49509889  0.88674514     0.00200
Br1376     Br  0.27613023  0.52863510  0.78964076    -0.04200
Br1377     Br  0.20561324  0.57595762  0.71846647     0.00300
Br1378     Br  0.22592666  0.45134155  0.77980056    -0.03500
Br1379     Br  0.16083573  0.49324301  0.81745551    -0.04400
Br1380     Br  0.29223884  0.53063642  0.85924950    -0.00400
C1381       C  0.23995352  0.52355978  0.62050703     0.01000
C1382       C  0.25862011  0.54610629  0.62898637     0.03800
C1383       C  0.28680734  0.54741745  0.61899939    -0.12200
C1384       C  0.29608596  0.52782731  0.59839111     0.23100
C1385       C  0.27638385  0.50780367  0.58681435    -0.12800
C1386       C  0.24831307  0.50572680  0.59778717     0.04600
C1387       C  0.32697620  0.52730900  0.59083460     0.27000
C1388       C  0.33961692  0.54977560  0.57497910    -0.13500
C1389       C  0.36934803  0.55050660  0.57017864     0.05100
C1390       C  0.38638542  0.52740989  0.57895754    -0.09400
C1391       C  0.37373038  0.50558507  0.59594753     0.05900
C1392       C  0.34434925  0.50586293  0.60226810    -0.13800
Br1393     Br  0.28848942  0.48173131  0.55752697    -0.05900
Br1394     Br  0.24583117  0.57583250  0.65421135    -0.00300
Br1395     Br  0.38589162  0.58253212  0.54999000     0.00200
Br1396     Br  0.32774731  0.47688172  0.62687989    -0.04200
Br1397     Br  0.22199119  0.47803696  0.58203628     0.00300
Br1398     Br  0.31354330  0.57443635  0.63580863    -0.03500
Br1399     Br  0.31581613  0.57881462  0.55851514    -0.04400
Br1400     Br  0.39659215  0.47537936  0.61135336    -0.00400
C1401       C  0.78463677  0.51046061  0.71469631     0.01000
C1402       C  0.77256851  0.53589672  0.72561534     0.03800
C1403       C  0.76826080  0.53935125  0.75525636    -0.12200
C1404       C  0.77439001  0.51699986  0.77423449     0.23100
C1405       C  0.78275625  0.49051794  0.76316528    -0.12800
C1406       C  0.78512536  0.48660831  0.73338878     0.04600
C1407       C  0.76724635  0.51980844  0.80513037     0.27000
C1408       C  0.78536304  0.53513007  0.82375297    -0.13500
C1409       C  0.77801749  0.53815394  0.85284152     0.05100
C1410       C  0.75370641  0.52382894  0.86413491    -0.09400
C1411       C  0.73546381  0.50865667  0.84516599     0.05900
C1412       C  0.74163486  0.50774993  0.81564931    -0.13800
Br1413     Br  0.78941402  0.45892759  0.78871893    -0.05900
Br1414     Br  0.75677543  0.56410466  0.70037318    -0.00300
Br1415     Br  0.80229655  0.56115476  0.87694347     0.00200
Br1416     Br  0.71477762  0.49046790  0.78920469    -0.04200
Br1417     Br  0.77625623  0.44880839  0.71928374     0.00300
Br1418     Br  0.75286459  0.57439988  0.76999049    -0.03500
Br1419     Br  0.82068581  0.55130905  0.80942080    -0.04400
Br1420     Br  0.70173077  0.48921344  0.85908107    -0.00400
C1421       C  0.62264557  0.52377761  0.54824832     0.01000
C1422       C  0.64471079  0.51494683  0.52991739     0.03800
C1423       C  0.67265431  0.51255956  0.54039727    -0.12200
C1424       C  0.67907114  0.52097509  0.56859124     0.23100
C1425       C  0.65749292  0.53182934  0.58631100    -0.12800
C1426       C  0.62911894  0.53214082  0.57658483     0.04600
C1427       C  0.70783342  0.51613349  0.58057466     0.27000
C1428       C  0.71305801  0.49090135  0.59587720    -0.13500
C1429       C  0.73912384  0.48759005  0.61020444     0.05100
C1430       C  0.75952832  0.51007704  0.61037509    -0.09400
C1431       C  0.75574209  0.53355421  0.59196830     0.05900
C1432       C  0.72971148  0.53674527  0.57731539    -0.13800
Br1433     Br  0.66686102  0.54555641  0.62418186    -0.05900
Br1434     Br  0.63653083  0.50383826  0.49108320    -0.00300
Br1435     Br  0.74722254  0.45189460  0.62896807     0.00200
Br1436     Br  0.72331227  0.56990687  0.55389064    -0.04200
Br1437     Br  0.59925964  0.54311704  0.60253749     0.00300
Br1438     Br  0.70179172  0.49587820  0.51688618    -0.03500
Br1439     Br  0.68385260  0.46154696  0.59833103    -0.04400
Br1440     Br  0.78579136  0.56132817  0.58669253    -0.00400
C1441       C  0.00031710  0.31155055  0.21668646     0.01000
C1442       C  0.01907118  0.29008340  0.22685552     0.03800
C1443       C  0.01879120  0.28194445  0.25589415    -0.12200
C1444       C  0.99963406  0.29464050  0.27502941     0.23100
C1445       C  0.98313198  0.31770382  0.26565997    -0.12800
C1446       C  0.98597404  0.32796513  0.23749138     0.04600
C1447       C  0.00043960  0.28712095  0.30594511     0.27000
C1448       C  0.98942296  0.26075074  0.31593029    -0.13500
C1449       C  0.99115347  0.25389039  0.34526087     0.05100
C1450       C  0.00124351  0.27431602  0.36497416    -0.09400
C1451       C  0.01360978  0.29992630  0.35476714     0.05900
C1452       C  0.01381563  0.30603510  0.32534461    -0.13800
Br1453     Br  0.95777043  0.33654682  0.29191452    -0.05900
Br1454     Br  0.04744722  0.27322133  0.20223257    -0.00300
Br1455     Br  0.98424639  0.21535063  0.35788754     0.00200
Br1456     Br  0.03324615  0.34002407  0.31152616    -0.04200
Br1457     Br  0.98108407  0.36841117  0.23219462     0.00300
Br1458     Br  0.04556166  0.25418325  0.26986412    -0.03500
Br1459     Br  0.97217305  0.23397372  0.28958821    -0.04400
Br1460     Br  0.03119022  0.32646844  0.38078073    -0.00400
C1461       C  0.99192941  0.27028236  0.63354715     0.01000
C1462       C  0.97208685  0.28972262  0.64514841     0.03800
C1463       C  0.97330960  0.29729814  0.67419780    -0.12200
C1464       C  0.99425468  0.28568941  0.69207414     0.23100
C1465       C  0.01357926  0.26585490  0.68117080    -0.12800
C1466       C  0.01234972  0.25793249  0.65206698     0.04600
C1467       C  0.99464578  0.29362883  0.72271351     0.27000
C1468       C  0.00554667  0.32042480  0.73095785    -0.13500
C1469       C  0.00092590  0.33036526  0.75887709     0.05100
C1470       C  0.98970566  0.31185319  0.78016402    -0.09400
C1471       C  0.97527662  0.28667142  0.77063057     0.05900
C1472       C  0.97894555  0.27705670  0.74239145    -0.13800
Br1473     Br  0.04155173  0.24959871  0.70648966    -0.05900
Br1474     Br  0.94337697  0.30745171  0.62202527    -0.00300
Br1475     Br  0.00121763  0.37089665  0.76445725     0.00200
Br1476     Br  0.96128834  0.24168535  0.73004461    -0.04200
Br1477     Br  0.03774442  0.22890088  0.63847063     0.00300
Br1478     Br  0.94613149  0.32385626  0.68984088    -0.03500
Br1479     Br  0.02551092  0.34416839  0.70346168    -0.04400
Br1480     Br  0.94519187  0.26864504  0.79292705    -0.00400
C1481       C  0.83444757  0.46116865  0.37872969     0.01000
C1482       C  0.85263316  0.47000952  0.40162136     0.03800
C1483       C  0.87144026  0.45039580  0.41416254    -0.12200
C1484       C  0.87084869  0.42171086  0.40556406     0.23100
C1485       C  0.85029329  0.41210772  0.38580017    -0.12800
C1486       C  0.83153030  0.43149714  0.37325408     0.04600
C1487       C  0.89120714  0.40121292  0.41780524     0.27000
C1488       C  0.91409448  0.39154643  0.40103522    -0.13500
C1489       C  0.93063225  0.36874798  0.41073226     0.05100
C1490       C  0.92686598  0.35841657  0.43879111    -0.09400
C1491       C  0.90542174  0.36967020  0.45638118     0.05900
C1492       C  0.88675452  0.39006581  0.44547925    -0.13800
Br1493     Br  0.84855867  0.37232114  0.37509206    -0.05900
Br1494     Br  0.85173134  0.50757412  0.41820884    -0.00300
Br1495     Br  0.95716500  0.35092626  0.38517760     0.00200
Br1496     Br  0.85495245  0.40239046  0.46834282    -0.04200
Br1497     Br  0.80017957  0.41651864  0.35059974     0.00300
Br1498     Br  0.89930911  0.46287198  0.44222446    -0.03500
Br1499     Br  0.92327356  0.41032206  0.36537841    -0.04400
Br1500     Br  0.90122411  0.35677795  0.49532127    -0.00400
C1501       C  0.84061294  0.46018506  0.63384784     0.01000
C1502       C  0.86294734  0.44727171  0.64987638     0.03800
C1503       C  0.87867675  0.42485210  0.63796052    -0.12200
C1504       C  0.87510619  0.41749678  0.60901799     0.23100
C1505       C  0.85445792  0.43124750  0.59242813    -0.12800
C1506       C  0.83629008  0.45125885  0.60498678     0.04600
C1507       C  0.89292651  0.39513668  0.59581720     0.27000
C1508       C  0.92156046  0.40099135  0.58865967    -0.13500
C1509       C  0.93819321  0.37990499  0.57560611     0.05100
C1510       C  0.92558696  0.35351554  0.56721406    -0.09400
C1511       C  0.89669934  0.34765460  0.57506605     0.05900
C1512       C  0.88095406  0.36811236  0.59008950    -0.13800
Br1513     Br  0.85139889  0.42269532  0.55197872    -0.05900
Br1514     Br  0.87586893  0.46206232  0.68644477    -0.00300
Br1515     Br  0.97884381  0.38665745  0.57243401     0.00200
Br1516     Br  0.84283211  0.35916881  0.60352227    -0.04200
Br1517     Br  0.80513508  0.46425585  0.58162056     0.00300
Br1518     Br  0.90550149  0.40404012  0.66115302    -0.03500
Br1519     Br  0.93801194  0.43807995  0.59696077    -0.04400
Br1520     Br  0.87738692  0.31217064  0.56537849    -0.00400
C1521       C  0.15547964  0.46177669  0.63151027     0.01000
C1522       C  0.16761833  0.43439803  0.62891020     0.03800
C1523       C  0.15170585  0.41146844  0.61685774    -0.12200
C1524       C  0.12316558  0.41534696  0.60836066     0.23100
C1525       C  0.11096394  0.44237947  0.61117383    -0.12800
C1526       C  0.12717178  0.46549226  0.62186818     0.04600
C1527       C  0.10628208  0.39213937  0.59408822     0.27000
C1528       C  0.10182601  0.39352494  0.56427950    -0.13500
C1529       C  0.08253500  0.37456602  0.55084129     0.05100
C1530       C  0.06822894  0.35310170  0.56684837    -0.09400
C1531       C  0.07288332  0.35156793  0.59674081     0.05900
C1532       C  0.09176875  0.37105603  0.61029779    -0.13800
Br1533     Br  0.07168373  0.44774829  0.59976060    -0.05900
Br1534     Br  0.20643965  0.42830671  0.64058118    -0.00300
Br1535     Br  0.07586008  0.37880652  0.51043123     0.00200
Br1536     Br  0.09692294  0.36959930  0.65124594    -0.04200
Br1537     Br  0.10968249  0.50197080  0.62260191     0.00300
Br1538     Br  0.16910054  0.37494158  0.61093996    -0.03500
Br1539     Br  0.12169879  0.42231374  0.54192300    -0.04400
Br1540     Br  0.05144844  0.32444388  0.61960836    -0.00400
C1541       C  0.06863183  0.35857442  0.43859814     0.01000
C1542       C  0.05563128  0.38110010  0.42343230     0.03800
C1543       C  0.07241840  0.40050913  0.40736791    -0.12200
C1544       C  0.10242069  0.39983386  0.40897038     0.23100
C1545       C  0.11549691  0.37906889  0.42619902    -0.12800
C1546       C  0.09878304  0.35803381  0.44026521     0.04600
C1547       C  0.11997815  0.42272415  0.39489828     0.27000
C1548       C  0.13578577  0.41719798  0.36998139    -0.13500
C1549       C  0.15363619  0.43858430  0.35795081     0.05100
C1550       C  0.15289731  0.46718653  0.36840824    -0.09400
C1551       C  0.13556800  0.47261364  0.39283438     0.05900
C1552       C  0.12096212  0.45014991  0.40688271    -0.13800
Br1553     Br  0.15630524  0.38055857  0.43168047    -0.05900
Br1554     Br  0.01492911  0.38638693  0.42504892    -0.00300
Br1555     Br  0.18131655  0.42647629  0.32986495     0.00200
Br1556     Br  0.10252704  0.45659171  0.44334419    -0.04200
Br1557     Br  0.11730974  0.33038108  0.46433486     0.00300
Br1558     Br  0.05435407  0.42821390  0.38298563    -0.03500
Br1559     Br  0.13296816  0.37999400  0.35245866    -0.04400
Br1560     Br  0.12881648  0.51042521  0.40704149    -0.00400
C1561       C  0.05251698  0.16323799  0.56717129     0.01000
C1562       C  0.03643545  0.15071107  0.58947226     0.03800
C1563       C  0.04799733  0.12851069  0.60575461    -0.12200
C1564       C  0.07570160  0.11903679  0.59976760     0.23100
C1565       C  0.09164509  0.13138901  0.57727660    -0.12800
C1566       C  0.08021306  0.15381379  0.56126495     0.04600
C1567       C  0.08890326  0.09690778  0.61767413     0.27000
C1568       C  0.10512036  0.10492860  0.64168004    -0.13500
C1569       C  0.12131657  0.08455668  0.65631017     0.05100
C1570       C  0.12057490  0.05559286  0.64757702    -0.09400
C1571       C  0.10231799  0.04755261  0.62458618     0.05900
C1572       C  0.08686827  0.06822485  0.60955785    -0.13800
Br1573     Br  0.12910997  0.11734157  0.56841953    -0.05900
Br1574     Br  0.99924690  0.16507099  0.59872244    -0.00300
Br1575     Br  0.14152863  0.09643572  0.69030327     0.00200
Br1576     Br  0.06234501  0.05754847  0.57787685    -0.04200
Br1577     Br  0.10267847  0.17209549  0.53177401     0.00300
Br1578     Br  0.02617759  0.11127046  0.63639318    -0.03500
Br1579     Br  0.10376249  0.14380974  0.65515077    -0.04400
Br1580     Br  0.09758486  0.00872807  0.61270922    -0.00400
C1581       C  0.85429773  0.06012627  0.65123901     0.01000
C1582       C  0.84406073  0.06805079  0.62366281     0.03800
C1583       C  0.85895357  0.08859633  0.60738405    -0.12200
C1584       C  0.88303371  0.10256057  0.61886772     0.23100
C1585       C  0.89202623  0.09648048  0.64692735    -0.12800
C1586       C  0.87790472  0.07514321  0.66301568     0.04600
C1587       C  0.89839372  0.12417477  0.60135845     0.27000
C1588       C  0.92146880  0.11611925  0.58418396    -0.13500
C1589       C  0.93544549  0.13630709  0.56654226     0.05100
C1590       C  0.92608534  0.16511925  0.56584953    -0.09400
C1591       C  0.90170123  0.17250383  0.58247744     0.05900
C1592       C  0.88845380  0.15217949  0.60040351    -0.13800
Br1593     Br  0.92344965  0.11797732  0.66327495    -0.05900
Br1594     Br  0.81060890  0.05028134  0.60652144    -0.00300
Br1595     Br  0.96753020  0.12311731  0.54427918     0.00200
Br1596     Br  0.85593203  0.16227205  0.62359332    -0.04200
Br1597     Br  0.88992559  0.06835188  0.70185178     0.00300
Br1598     Br  0.84683346  0.09754281  0.56881726    -0.03500
Br1599     Br  0.93345068  0.07685650  0.58477462    -0.04400
Br1600     Br  0.88402826  0.20956074  0.58016962    -0.00400
C1601       C  0.92376436  0.17029861  0.42453713     0.01000
C1602       C  0.91509773  0.17731775  0.39606750     0.03800
C1603       C  0.90406564  0.15604988  0.37756668    -0.12200
C1604       C  0.89706568  0.12876228  0.38818620     0.23100
C1605       C  0.90174664  0.12279972  0.41737948    -0.12800
C1606       C  0.91626959  0.14269034  0.43507668     0.04600
C1607       C  0.88408563  0.10640091  0.36909449     0.27000
C1608       C  0.85597969  0.10877815  0.35910491    -0.13500
C1609       C  0.84405884  0.08776591  0.34078600     0.05100
C1610       C  0.85779037  0.06095163  0.33674356    -0.09400
C1611       C  0.88517237  0.05802719  0.34999714     0.05900
C1612       C  0.89920719  0.08164832  0.36268985    -0.13800
Br1613     Br  0.88708724  0.08740811  0.43325138    -0.05900
Br1614     Br  0.91552631  0.21601122  0.38172818    -0.00300
Br1615     Br  0.81026195  0.09890269  0.32056992     0.00200
Br1616     Br  0.93928976  0.07990190  0.37236518    -0.04200
Br1617     Br  0.92380643  0.13165982  0.47417153     0.00300
Br1618     Br  0.89895038  0.16417742  0.33726701    -0.03500
Br1619     Br  0.83338681  0.14067966  0.37150759    -0.04400
Br1620     Br  0.90235918  0.02184536  0.35794702    -0.00400
C1621       C  0.05821272  0.16726567  0.42680680     0.01000
C1622       C  0.06206871  0.13918777  0.43746030     0.03800
C1623       C  0.07392802  0.11800470  0.41984710    -0.12200
C1624       C  0.08392207  0.12489273  0.39217364     0.23100
C1625       C  0.08163189  0.15305719  0.38207374    -0.12800
C1626       C  0.06810171  0.17390861  0.39876184     0.04600
C1627       C  0.09717354  0.10266751  0.37373293     0.27000
C1628       C  0.12472959  0.09292626  0.37983725    -0.13500
C1629       C  0.13693168  0.07125692  0.36312357     0.05100
C1630       C  0.12286705  0.06092387  0.33799030    -0.09400
C1631       C  0.09530802  0.07161895  0.33160604     0.05900
C1632       C  0.08234901  0.09156745  0.34990284    -0.13800
Br1633     Br  0.09755562  0.16315404  0.34519129    -0.05900
Br1634     Br  0.05318992  0.12944272  0.47680337    -0.00300
Br1635     Br  0.17138516  0.05417969  0.37761861     0.00200
Br1636     Br  0.04396189  0.10409079  0.34224251    -0.04200
Br1637     Br  0.06236834  0.21099018  0.38170447     0.00300
Br1638     Br  0.07644079  0.07926665  0.43363277    -0.03500
Br1639     Br  0.14607998  0.10995900  0.41104917    -0.04400
Br1640     Br  0.07464187  0.06100870  0.29742109    -0.00400
C1641       C  0.99563761  0.75386378  0.35937101     0.01000
C1642       C  0.97053479  0.74544581  0.34401985     0.03800
C1643       C  0.97209047  0.73919158  0.31461291    -0.12200
C1644       C  0.99858602  0.73882845  0.30073633     0.23100
C1645       C  0.02349644  0.74692443  0.31559006    -0.12800
C1646       C  0.02183717  0.75627180  0.34411154     0.04600
C1647       C  0.00004002  0.73214702  0.26979860     0.27000
C1648       C  0.99886701  0.70378831  0.26009848    -0.13500
C1649       C  0.99999179  0.69790603  0.23045002     0.05100
C1650       C  0.00302956  0.72058496  0.21025798    -0.09400
C1651       C  0.00992972  0.74804898  0.22142898     0.05900
C1652       C  0.00504648  0.75430548  0.25027144    -0.13800
Br1653     Br  0.06007601  0.74507982  0.29658702    -0.05900
Br1654     Br  0.93351121  0.74071483  0.36192572    -0.00300
Br1655     Br  0.00086037  0.65847340  0.21881699     0.00200
Br1656     Br  0.00675766  0.79343658  0.26330778    -0.04200
Br1657     Br  0.05547783  0.77440514  0.36049522     0.00300
Br1658     Br  0.93779881  0.73120070  0.29282636    -0.03500
Br1659     Br  0.99653774  0.67317630  0.28777440    -0.04400
Br1660     Br  0.03581143  0.77386994  0.20217035    -0.00400
C1661       C  0.99400659  0.71410196  0.77627773     0.01000
C1662       C  0.97834016  0.73854375  0.76737432     0.03800
C1663       C  0.97933848  0.74787562  0.73879624    -0.12200
C1664       C  0.99204599  0.73097955  0.71782426     0.23100
C1665       C  0.00398618  0.70474966  0.72545829    -0.12800
C1666       C  0.00415452  0.69582186  0.75435849     0.04600
C1667       C  0.98968379  0.73939032  0.68730183     0.27000
C1668       C  0.96498856  0.73192737  0.67173040    -0.13500
C1669       C  0.96226823  0.74016144  0.64284825     0.05100
C1670       C  0.98532894  0.75448978  0.62884751    -0.09400
C1671       C  0.00873049  0.76431618  0.64556421     0.05900
C1672       C  0.01094602  0.75654819  0.67458107    -0.13800
Br1673     Br  0.02015073  0.68115686  0.69591343    -0.05900
Br1674     Br  0.95228279  0.75809420  0.79256881    -0.00300
Br1675     Br  0.92627430  0.73214959  0.62391545     0.00200
Br1676     Br  0.04291695  0.76964436  0.69731514    -0.04200
Br1677     Br  0.01198551  0.65632137  0.76175012     0.00300
Br1678     Br  0.96374999  0.78434347  0.72809945    -0.03500
Br1679     Br  0.93492127  0.71014459  0.69032204    -0.04400
Br1680     Br  0.03654025  0.79081302  0.62988254    -0.00400
C1681       C  0.15947686  0.56392767  0.37089424     0.01000
C1682       C  0.13094216  0.56656760  0.36141761     0.03800
C1683       C  0.11304046  0.58690123  0.37371771    -0.12200
C1684       C  0.12393329  0.60626316  0.39405814     0.23100
C1685       C  0.15249310  0.60418119  0.40317486    -0.12800
C1686       C  0.16963882  0.58197518  0.39291132     0.04600
C1687       C  0.10438161  0.62693713  0.40755116     0.27000
C1688       C  0.09485609  0.65073303  0.39205979    -0.13500
C1689       C  0.07292420  0.66759765  0.40317301     0.05100
C1690       C  0.06356227  0.66366472  0.43171362    -0.09400
C1691       C  0.07422855  0.64048260  0.44769285     0.05900
C1692       C  0.09325970  0.62132247  0.43501502    -0.13800
Br1693     Br  0.16809549  0.63204463  0.42942905    -0.05900
Br1694     Br  0.11490586  0.54056976  0.33367648    -0.00300
Br1695     Br  0.05394695  0.69404258  0.37817833     0.00200
Br1696     Br  0.10392972  0.58706640  0.45512104    -0.04200
Br1697     Br  0.20598237  0.57543449  0.41054133     0.00300
Br1698     Br  0.07298720  0.58723780  0.36388534    -0.03500
Br1699     Br  0.11265916  0.66085731  0.35616089    -0.04400
Br1700     Br  0.06485677  0.63554241  0.48750421    -0.00400
C1701       C  0.14896014  0.55974437  0.63179137     0.01000
C1702       C  0.15640482  0.57170529  0.60471276     0.03800
C1703       C  0.13748339  0.58982437  0.59004513    -0.12200
C1704       C  0.11175574  0.59822798  0.60281417     0.23100
C1705       C  0.10445480  0.58734702  0.63000588    -0.12800
C1706       C  0.12238559  0.56783821  0.64419738     0.04600
C1707       C  0.09341564  0.62004250  0.58844747     0.27000
C1708       C  0.10216018  0.64884479  0.58821692    -0.13500
C1709       C  0.08592878  0.66954162  0.57376464     0.05100
C1710       C  0.05910419  0.66213215  0.56092456    -0.09400
C1711       C  0.04985546  0.63310489  0.56257625     0.05900
C1712       C  0.06757089  0.61219324  0.57495865    -0.13800
Br1713     Br  0.06944903  0.59938962  0.64784456    -0.05900
Br1714     Br  0.19343352  0.56619621  0.58784161    -0.00300
Br1715     Br  0.10264094  0.70745849  0.57099603     0.00200
Br1716     Br  0.05702884  0.57233529  0.57260854    -0.04200
Br1717     Br  0.10792712  0.55082826  0.67928109     0.00300
Br1718     Br  0.14677659  0.60356809  0.55205028    -0.03500
Br1719     Br  0.13709001  0.65981949  0.60772066    -0.04400
Br1720     Br  0.01237465  0.62121607  0.54957489    -0.00400
C1721       C  0.92529931  0.66383614  0.56173423     0.01000
C1722       C  0.90322768  0.64734334  0.54946136     0.03800
C1723       C  0.88873093  0.62671634  0.56586900    -0.12200
C1724       C  0.89671113  0.62209929  0.59455648     0.23100
C1725       C  0.91990184  0.63741396  0.60645237    -0.12800
C1726       C  0.93469332  0.65776985  0.58974243     0.04600
C1727       C  0.88067919  0.60073533  0.61170752     0.27000
C1728       C  0.85496177  0.60832241  0.62481388    -0.13500
C1729       C  0.83727817  0.58726774  0.63732629     0.05100
C1730       C  0.84535444  0.55828902  0.63705396    -0.09400
C1731       C  0.87192400  0.55110984  0.62461499     0.05900
C1732       C  0.88951237  0.57230764  0.61220019    -0.13800
Br1733     Br  0.93116960  0.63048046  0.64553010    -0.05900
Br1734     Br  0.89395799  0.65181185  0.50971879    -0.00300
Br1735     Br  0.80085077  0.59850508  0.65205608     0.00200
Br1736     Br  0.92562372  0.56257864  0.59502553    -0.04200
Br1737     Br  0.96954182  0.67496341  0.60391285     0.00300
Br1738     Br  0.85776643  0.60480577  0.54911982    -0.03500
Br1739     Br  0.84366978  0.64774486  0.62438293    -0.04400
Br1740     Br  0.88524222  0.51264621  0.62403000    -0.00400
C1741       C  0.83951560  0.55644235  0.35637515     0.01000
C1742       C  0.82915779  0.58439949  0.35735985     0.03800
C1743       C  0.84714909  0.60709721  0.36618638    -0.12200
C1744       C  0.87428811  0.60151948  0.37807569     0.23100
C1745       C  0.88465744  0.57338486  0.37688583    -0.12800
C1746       C  0.86834130  0.55171850  0.36348489     0.04600
C1747       C  0.89109002  0.62493983  0.39248312     0.27000
C1748       C  0.91795293  0.63429154  0.38177834    -0.13500
C1749       C  0.93404624  0.65522335  0.39678099     0.05100
C1750       C  0.92235943  0.66862347  0.42099550    -0.09400
C1751       C  0.89384395  0.66277182  0.42839210     0.05900
C1752       C  0.87939121  0.63924251  0.41632992    -0.13800
Br1753     Br  0.92022635  0.56365638  0.39501849    -0.05900
Br1754     Br  0.79039807  0.59165045  0.34637686    -0.00300
Br1755     Br  0.97070360  0.66793779  0.38254997     0.00200
Br1756     Br  0.84406057  0.62637182  0.43358437    -0.04200
Br1757     Br  0.88645199  0.51661165  0.35274596     0.00300
Br1758     Br  0.83484143  0.64586733  0.36111072    -0.03500
Br1759     Br  0.93206495  0.61982339  0.34587034    -0.04400
Br1760     Br  0.87315370  0.68963605  0.45134537    -0.00400
C1761       C  0.05978383  0.85065153  0.41915156     0.01000
C1762       C  0.04406068  0.87277252  0.40624565     0.03800
C1763       C  0.05743202  0.89266570  0.38777758    -0.12200
C1764       C  0.08708900  0.89190968  0.38314510     0.23100
C1765       C  0.10281606  0.86941931  0.39506936    -0.12800
C1766       C  0.08895409  0.84794424  0.41143942     0.04600
C1767       C  0.10141979  0.91550848  0.36665896     0.27000
C1768       C  0.11092115  0.91146253  0.33827443    -0.13500
C1769       C  0.12288174  0.93450900  0.32255484     0.05100
C1770       C  0.12413511  0.96221812  0.33448617    -0.09400
C1771       C  0.11401687  0.96615371  0.36275214     0.05900
C1772       C  0.10375928  0.94281701  0.37900323    -0.13800
Br1773     Br  0.14362192  0.86855818  0.38979674    -0.05900
Br1774     Br  0.00352221  0.87459001  0.41111834    -0.00300
Br1775     Br  0.13683933  0.92808691  0.28426451     0.00200
Br1776     Br  0.09313379  0.94802885  0.41868148    -0.04200
Br1777     Br  0.11019886  0.81439559  0.42135515     0.00300
Br1778     Br  0.03501254  0.92097356  0.36821043    -0.03500
Br1779     Br  0.10694630  0.87442790  0.32070345    -0.04400
Br1780     Br  0.11383875  0.00323148  0.37997369    -0.00400
C1781       C  0.86625832  0.96510072  0.33748691     0.01000
C1782       C  0.89315567  0.95436947  0.32892074     0.03800
C1783       C  0.90752227  0.93457022  0.34628222    -0.12200
C1784       C  0.89482698  0.92418336  0.37156789     0.23100
C1785       C  0.86891513  0.93566012  0.38097009    -0.12800
C1786       C  0.85535366  0.95686559  0.36474818     0.04600
C1787       C  0.90874868  0.90118815  0.38833664     0.27000
C1788       C  0.90760140  0.87287786  0.37856877    -0.13500
C1789       C  0.92084898  0.85105466  0.39431869     0.05100
C1790       C  0.93338684  0.85688650  0.42161339    -0.09400
C1791       C  0.93336113  0.88560147  0.43154293     0.05900
C1792       C  0.92283929  0.90760437  0.41411523    -0.13800
Br1793     Br  0.85187435  0.92207479  0.41622486    -0.05900
Br1794     Br  0.91154414  0.96604116  0.29388860    -0.00300
Br1795     Br  0.92252259  0.81405151  0.37648710     0.00200
Br1796     Br  0.92862979  0.94701688  0.42490522    -0.04200
Br1797     Br  0.82366500  0.97646814  0.38202477     0.00300
Br1798     Br  0.94505551  0.92160870  0.33578830    -0.03500
Br1799     Br  0.88805367  0.86425376  0.34301385    -0.04400
Br1800     Br  0.94588855  0.89601223  0.46952280    -0.00400
C1801       C  0.92383728  0.85664123  0.55787473     0.01000
C1802       C  0.93642859  0.88364497  0.56427664     0.03800
C1803       C  0.92413940  0.90135823  0.58512027    -0.12200
C1804       C  0.89597580  0.89625501  0.59462994     0.23100
C1805       C  0.88111035  0.87204227  0.58418744    -0.12800
C1806       C  0.89535666  0.85152557  0.56738661     0.04600
C1807       C  0.88130668  0.91816343  0.61267050     0.27000
C1808       C  0.87209209  0.91217285  0.64094167    -0.13500
C1809       C  0.85780919  0.93317276  0.65705933     0.05100
C1810       C  0.85639157  0.96153045  0.64682281    -0.09400
C1811       C  0.86745237  0.96771961  0.61937130     0.05900
C1812       C  0.87729700  0.94577834  0.60158310    -0.13800
Br1813     Br  0.84068411  0.86801100  0.59133848    -0.05900
Br1814     Br  0.96781866  0.89955362  0.54232970    -0.00300
Br1815     Br  0.84048861  0.92300932  0.69326252     0.00200
Br1816     Br  0.88402795  0.95342776  0.56140445    -0.04200
Br1817     Br  0.87407882  0.81815862  0.55505682     0.00300
Br1818     Br  0.94631543  0.93272148  0.60081694    -0.03500
Br1819     Br  0.87985572  0.87567604  0.65804108    -0.04400
Br1820     Br  0.87036061  0.00609602  0.60568058    -0.00400
C1821       C  0.05689918  0.84826120  0.57288371     0.01000
C1822       C  0.04064404  0.86922725  0.58647588     0.03800
C1823       C  0.05404788  0.89191890  0.60107452    -0.12200
C1824       C  0.08364780  0.89120348  0.60646056     0.23100
C1825       C  0.09930501  0.86745038  0.59721580    -0.12800
C1826       C  0.08616383  0.84626007  0.58008402     0.04600
C1827       C  0.09805624  0.91431634  0.62322377     0.27000
C1828       C  0.11878936  0.93210974  0.61010223    -0.13500
C1829       C  0.13391543  0.95254803  0.62642145     0.05100
C1830       C  0.12578026  0.95788247  0.65509156    -0.09400
C1831       C  0.10452450  0.94056785  0.66794874     0.05900
C1832       C  0.09182042  0.91796959  0.65254772    -0.13800
Br1833     Br  0.13861810  0.86352768  0.60887643    -0.05900
Br1834     Br  0.00068128  0.86206401  0.59234640    -0.00300
Br1835     Br  0.16420180  0.97459853  0.60843267     0.00200
Br1836     Br  0.06649522  0.89149702  0.67203280    -0.04200
Br1837     Br  0.10814542  0.81368844  0.56890301     0.00300
Br1838     Br  0.03155825  0.92377028  0.61343834    -0.03500
Br1839     Br  0.12541849  0.92953435  0.56935310    -0.04400
Br1840     Br  0.09302844  0.94701023  0.70694644    -0.00400
C1841       C  0.27303369  0.80363561  0.49286363     0.01000
C1842       C  0.25882616  0.79732822  0.51940638     0.03800
C1843       C  0.22933587  0.79149496  0.51990077    -0.12200
C1844       C  0.21400257  0.78924915  0.49427252     0.23100
C1845       C  0.22806624  0.79173325  0.46796662    -0.12800
C1846       C  0.25758844  0.79733493  0.46720132     0.04600
C1847       C  0.18332553  0.78186583  0.49503795     0.27000
C1848       C  0.17435658  0.75306615  0.49586682    -0.13500
C1849       C  0.14508629  0.74617384  0.49713069     0.05100
C1850       C  0.12494259  0.76813868  0.49765599    -0.09400
C1851       C  0.13404501  0.79691150  0.49623868     0.05900
C1852       C  0.16321405  0.80373356  0.49489238    -0.13800
Br1853     Br  0.20660572  0.78580356  0.43296398    -0.05900
Br1854     Br  0.27863917  0.79029286  0.55514078    -0.00300
Br1855     Br  0.13260777  0.70684273  0.49712559     0.00200
Br1856     Br  0.17582260  0.84298578  0.49199530    -0.04200
Br1857     Br  0.27619302  0.78940980  0.43148877     0.00300
Br1858     Br  0.20963491  0.78492550  0.55580517    -0.03500
Br1859     Br  0.20230485  0.72329114  0.49439805    -0.04400
Br1860     Br  0.10659635  0.82719703  0.49537147    -0.00400
C1861       C  0.36878612  0.76029195  0.49180033     0.01000
C1862       C  0.36096915  0.73779700  0.51072946     0.03800
C1863       C  0.37211081  0.71050201  0.50711987    -0.12200
C1864       C  0.39383088  0.70599101  0.48702478     0.23100
C1865       C  0.40366022  0.72869877  0.46975610    -0.12800
C1866       C  0.39055524  0.75557011  0.47140800     0.04600
C1867       C  0.40787137  0.67787917  0.48650536     0.27000
C1868       C  0.42650259  0.67107547  0.50883446    -0.13500
C1869       C  0.43597750  0.64301796  0.51222196     0.05100
C1870       C  0.42913132  0.62163241  0.49110656    -0.09400
C1871       C  0.41131051  0.62936380  0.46780618     0.05900
C1872       C  0.40022177  0.65714070  0.46607865    -0.13800
Br1873     Br  0.43494448  0.72256341  0.44376208    -0.05900
Br1874     Br  0.33612364  0.74410212  0.54298816    -0.00300
Br1875     Br  0.45853414  0.63618743  0.54653940     0.00200
Br1876     Br  0.37355270  0.66688621  0.43626796    -0.04200
Br1877     Br  0.40188236  0.78481030  0.44468079     0.00300
Br1878     Br  0.35723767  0.67883008  0.52944493    -0.03500
Br1879     Br  0.43864171  0.70090094  0.53515919    -0.04400
Br1880     Br  0.39998519  0.60213187  0.43881060    -0.00400
C1881       C  0.27603435  0.21308546  0.50042144     0.01000
C1882       C  0.26503280  0.23656190  0.48486639     0.03800
C1883       C  0.23675615  0.24536359  0.48908819    -0.12200
C1884       C  0.21837522  0.22984696  0.50726316     0.23100
C1885       C  0.22805461  0.20483229  0.52040224    -0.12800
C1886       C  0.25589248  0.19526776  0.51515633     0.04600
C1887       C  0.18740795  0.23617743  0.50709398     0.27000
C1888       C  0.17610275  0.25768173  0.52459038    -0.13500
C1889       C  0.14696416  0.26460058  0.52252982     0.05100
C1890       C  0.12889222  0.24961046  0.50323878    -0.09400
C1891       C  0.14048578  0.22798828  0.48585277     0.05900
C1892       C  0.16953013  0.22138570  0.48778132    -0.13800
Br1893     Br  0.20229437  0.18272631  0.54426858    -0.05900
Br1894     Br  0.28587051  0.25360893  0.45352701    -0.00300
Br1895     Br  0.13239766  0.29568724  0.54503453     0.00200
Br1896     Br  0.18504072  0.19177669  0.46381358    -0.04200
Br1897     Br  0.26234021  0.15496843  0.52110335     0.00300
Br1898     Br  0.22243357  0.27810828  0.46878623    -0.03500
Br1899     Br  0.20070361  0.27745445  0.55133573    -0.04400
Br1900     Br  0.11680674  0.20600979  0.46003218    -0.00400
C1901       C  0.37904601  0.24867194  0.49402523     0.01000
C1902       C  0.38021491  0.26242919  0.46703711     0.03800
C1903       C  0.39819403  0.28629235  0.46286408    -0.12200
C1904       C  0.41402446  0.29751535  0.48589757     0.23100
C1905       C  0.41416287  0.28306865  0.51238374    -0.12800
C1906       C  0.39730663  0.25820219  0.51615785     0.04600
C1907       C  0.42677085  0.32656300  0.48335073     0.27000
C1908       C  0.45530457  0.33081422  0.47487828    -0.13500
C1909       C  0.46701018  0.35871086  0.47302698     0.05100
C1910       C  0.45030747  0.38248526  0.48108130    -0.09400
C1911       C  0.42070088  0.37789386  0.48639115     0.05900
C1912       C  0.40919616  0.35014142  0.48759328    -0.13800
Br1913     Br  0.43607916  0.29848717  0.54391278    -0.05900
Br1914     Br  0.35751401  0.24874765  0.43532244    -0.00300
Br1915     Br  0.50536711  0.36332774  0.45846503     0.00200
Br1916     Br  0.36879943  0.34420226  0.49433942    -0.04200
Br1917     Br  0.39878641  0.23787903  0.55184344     0.00300
Br1918     Br  0.40002040  0.30497684  0.42601656    -0.03500
Br1919     Br  0.47785159  0.29811040  0.46528587    -0.04400
Br1920     Br  0.39451071  0.40923731  0.48998359    -0.00400
C1921       C  0.69624595  0.23304668  0.99285796     0.01000
C1922       C  0.69755238  0.24803249  0.96617758     0.03800
C1923       C  0.70201035  0.27774053  0.96563957    -0.12200
C1924       C  0.70955969  0.29234194  0.99076083     0.23100
C1925       C  0.71314664  0.27718412  0.01641555    -0.12800
C1926       C  0.70724891  0.24765720  0.01747295     0.04600
C1927       C  0.71592567  0.32337219  0.98972834     0.27000
C1928       C  0.74246661  0.33353681  0.97930877    -0.13500
C1929       C  0.74862544  0.36296958  0.97903135     0.05100
C1930       C  0.72840697  0.38221420  0.98937716    -0.09400
C1931       C  0.70152128  0.37210030  0.99875371     0.05900
C1932       C  0.69532253  0.34273926  0.99910129    -0.13800
Br1933     Br  0.72774369  0.29704241  0.04976901    -0.05900
Br1934     Br  0.70127228  0.22887475  0.92966833    -0.00300
Br1935     Br  0.78483821  0.37702354  0.96489924     0.00200
Br1936     Br  0.65859905  0.32892658  0.01231435    -0.04200
Br1937     Br  0.71959993  0.22760203  0.05150773     0.00300
Br1938     Br  0.69940747  0.29859331  0.92996687    -0.03500
Br1939     Br  0.77045282  0.30714262  0.96559354    -0.04400
Br1940     Br  0.67257272  0.39853530  0.00960807    -0.00400
C1941       C  0.74001779  0.13881683  0.98557417     0.01000
C1942       C  0.74712203  0.13349022  0.95658410     0.03800
C1943       C  0.77311560  0.12049827  0.94951111    -0.12200
C1944       C  0.79302350  0.11423638  0.97108021     0.23100
C1945       C  0.78686687  0.12109575  0.99976265    -0.12800
C1946       C  0.76112223  0.13454895  0.00677395     0.04600
C1947       C  0.82132432  0.10226400  0.96369622     0.27000
C1948       C  0.82524202  0.07260203  0.96415550    -0.13500
C1949       C  0.85281294  0.06157371  0.96151421     0.05100
C1950       C  0.87667862  0.08007651  0.96039206    -0.09400
C1951       C  0.87246820  0.10934250  0.95539476     0.05900
C1952       C  0.84471789  0.12049996  0.95726321    -0.13800
Br1953     Br  0.81441008  0.11295613  0.02932766    -0.05900
Br1954     Br  0.72413718  0.14881538  0.92604707    -0.00300
Br1955     Br  0.85810974  0.02124235  0.95662106     0.00200
Br1956     Br  0.83868229  0.16068539  0.95169154    -0.04200
Br1957     Br  0.75767071  0.15208440  0.04397238     0.00300
Br1958     Br  0.78223088  0.11235532  0.91010044    -0.03500
Br1959     Br  0.79299119  0.04722830  0.96927658    -0.04400
Br1960     Br  0.90415022  0.13370972  0.94489793    -0.00400
C1961       C  0.28991492  0.23097656  0.99859515     0.01000
C1962       C  0.28768239  0.24832094  0.97356079     0.03800
C1963       C  0.28289536  0.27782035  0.97598025    -0.12200
C1964       C  0.27636665  0.28987107  0.00267318     0.23100
C1965       C  0.27495897  0.27243585  0.02706103    -0.12800
C1966       C  0.28005628  0.24300949  0.02487146     0.04600
C1967       C  0.26884181  0.32049708  0.00467749     0.27000
C1968       C  0.29063069  0.34135720  0.00641496    -0.13500
C1969       C  0.28372619  0.37037771  0.00695398     0.05100
C1970       C  0.25496959  0.37871122  0.00563356    -0.09400
C1971       C  0.23307672  0.35792782  0.00608264     0.05900
C1972       C  0.23996502  0.32880626  0.00508010    -0.13800
Br1973     Br  0.26580235  0.28920588  0.06367229    -0.05900
Br1974     Br  0.28316550  0.23215576  0.93567653    -0.00300
Br1975     Br  0.31386871  0.39866014  0.01011185     0.00200
Br1976     Br  0.20988160  0.30036005  0.00416936    -0.04200
Br1977     Br  0.26733720  0.21963641  0.05674928     0.00300
Br1978     Br  0.28472329  0.30197303  0.94243819    -0.03500
Br1979     Br  0.32997927  0.33004675  0.00823407    -0.04400
Br1980     Br  0.19392869  0.36950849  0.00955709    -0.00400
C1981       C  0.24762745  0.13488038  0.98937076     0.01000
C1982       C  0.23051064  0.12843297  0.01345259     0.03800
C1983       C  0.20425655  0.11411212  0.00987523    -0.12200
C1984       C  0.19502870  0.10616619  0.98224278     0.23100
C1985       C  0.21114934  0.11426950  0.95806879    -0.12800
C1986       C  0.23662988  0.12995414  0.96162257     0.04600
C1987       C  0.16719150  0.09139439  0.97877615     0.27000
C1988       C  0.16400516  0.06286464  0.98767761    -0.13500
C1989       C  0.13662544  0.05057250  0.98956298     0.05100
C1990       C  0.11304502  0.06485415  0.97802352    -0.09400
C1991       C  0.11645253  0.09303111  0.96796142     0.05900
C1992       C  0.14317979  0.10676205  0.96978423    -0.13800
Br1993     Br  0.19757086  0.10517627  0.92007195    -0.05900
Br1994     Br  0.24064797  0.14305962  0.05081780    -0.00300
Br1995     Br  0.13089315  0.01800986  0.01384941     0.00200
Br1996     Br  0.14630836  0.14719928  0.96255645    -0.04200
Br1997     Br  0.25352120  0.14888208  0.92880107     0.00300
Br1998     Br  0.17973998  0.10738895  0.04256411    -0.03500
Br1999     Br  0.19695268  0.04132055  0.99899022    -0.04400
Br2000     Br  0.08408948  0.11354419  0.95345182    -0.00400
C2001       C  0.71024575  0.81233144  0.49080192     0.01000
C2002       C  0.73149850  0.82876708  0.50542618     0.03800
C2003       C  0.75977923  0.81895297  0.50739739    -0.12200
C2004       C  0.76868712  0.79574704  0.49074901     0.23100
C2005       C  0.74922032  0.78301827  0.47159478    -0.12800
C2006       C  0.72032987  0.79118332  0.47148964     0.04600
C2007       C  0.79939876  0.78749570  0.49035910     0.27000
C2008       C  0.81924675  0.80387929  0.47448636    -0.13500
C2009       C  0.84838478  0.79700981  0.47481313     0.05100
C2010       C  0.85796698  0.77272885  0.48981219    -0.09400
C2011       C  0.83797882  0.75613028  0.50551519     0.05900
C2012       C  0.80889159  0.76367406  0.50598420    -0.13800
Br2013     Br  0.76278332  0.75527289  0.44443260    -0.05900
Br2014     Br  0.72628707  0.86878735  0.51317209    -0.00300
Br2015     Br  0.87524199  0.82299400  0.45713312     0.00200
Br2016     Br  0.78200435  0.74182399  0.52857824    -0.04200
Br2017     Br  0.69623955  0.77564217  0.44179665     0.00300
Br2018     Br  0.78708200  0.83851874  0.53165492    -0.03500
Br2019     Br  0.80643933  0.83623202  0.45255987    -0.04400
Br2020     Br  0.85026379  0.72291031  0.52631265    -0.00400
C2021       C  0.61220935  0.76675897  0.50526043     0.01000
C2022       C  0.59602695  0.76297881  0.53065236     0.03800
C2023       C  0.58353243  0.73614971  0.53721068    -0.12200
C2024       C  0.58621157  0.71322711  0.51804948     0.23100
C2025       C  0.60073243  0.71735798  0.49199896    -0.12800
C2026       C  0.61300306  0.74407208  0.48536080     0.04600
C2027       C  0.57125066  0.68555749  0.52338810     0.27000
C2028       C  0.58521861  0.66309520  0.53746739    -0.13500
C2029       C  0.57250335  0.63567753  0.53841709     0.05100
C2030       C  0.54556710  0.63071616  0.52562003    -0.09400
C2031       C  0.53232838  0.65299589  0.51075605     0.05900
C2032       C  0.54457572  0.68046048  0.51037773    -0.13800
Br2033     Br  0.60378507  0.68606943  0.46531618    -0.05900
Br2034     Br  0.58943995  0.79426591  0.55611069    -0.00300
Br2035     Br  0.59354022  0.60432292  0.55426230     0.00200
Br2036     Br  0.52614157  0.71057867  0.48945611    -0.04200
Br2037     Br  0.62826724  0.75002476  0.44759340     0.00300
Br2038     Br  0.56296252  0.73036865  0.57259771    -0.03500
Br2039     Br  0.62281144  0.66934786  0.55320587    -0.04400
Br2040     Br  0.50077749  0.64467504  0.48589770    -0.00400
C2041       C  0.74107796  0.64788234  0.01379314     0.01000
C2042       C  0.76261251  0.66825664  0.00794806     0.03800
C2043       C  0.75608431  0.69750751  0.00716587    -0.12200
C2044       C  0.72812378  0.70646747  0.01324832     0.23100
C2045       C  0.70778675  0.68641427  0.02306088    -0.12800
C2046       C  0.71468032  0.65739843  0.02423146     0.04600
C2047       C  0.72019704  0.73692306  0.01010346     0.27000
C2048       C  0.71927693  0.75477154  0.03410648    -0.13500
C2049       C  0.71093885  0.78343335  0.03123621     0.05100
C2050       C  0.70192165  0.79455911  0.00404791    -0.09400
C2051       C  0.70725354  0.77707472  0.97963541     0.05900
C2052       C  0.71465478  0.74819998  0.98287690    -0.13800
Br2053     Br  0.67045262  0.69866728  0.03487825    -0.05900
Br2054     Br  0.80161094  0.65663023  0.00674562    -0.00300
Br2055     Br  0.71636588  0.80679506  0.06484638     0.00200
Br2056     Br  0.71807349  0.72374662  0.94973948    -0.04200
Br2057     Br  0.68906303  0.63127811  0.04285237     0.00300
Br2058     Br  0.78545719  0.72538009  0.99853030    -0.03500
Br2059     Br  0.73049651  0.73962143  0.07100617    -0.04400
Br2060     Br  0.71121733  0.79247379  0.94160273    -0.00400
C2061       C  0.73065853  0.89740623  0.00416547     0.01000
C2062       C  0.74495428  0.89900465  0.03091221     0.03800
C2063       C  0.76908765  0.91666459  0.03417906    -0.12200
C2064       C  0.77999427  0.93151451  0.01046397     0.23100
C2065       C  0.76463320  0.93204156  0.98456584    -0.12800
C2066       C  0.73961048  0.91536924  0.98160251     0.04600
C2067       C  0.80936142  0.94310281  0.01172646     0.27000
C2068       C  0.81460039  0.97137048  0.02012734    -0.13500
C2069       C  0.84260780  0.98249192  0.02006001     0.05100
C2070       C  0.86556129  0.96512080  0.01092854    -0.09400
C2071       C  0.86022378  0.93569080  0.00576944     0.05900
C2072       C  0.83216920  0.92491910  0.00590532    -0.13800
Br2073     Br  0.77882463  0.95457770  0.95291434    -0.05900
Br2074     Br  0.73201119  0.87734018  0.06352460    -0.00300
Br2075     Br  0.84807455  0.02153921  0.03263152     0.00200
Br2076     Br  0.82473880  0.88486760  0.99872814    -0.04200
Br2077     Br  0.71865803  0.91613645  0.94624147     0.00300
Br2078     Br  0.78831448  0.91974846  0.07072631    -0.03500
Br2079     Br  0.78308122  0.99447736  0.03222138    -0.04400
Br2080     Br  0.89090304  0.90897811  0.00066168    -0.00400
C2081       C  0.28515924  0.79410121  0.99861481     0.01000
C2082       C  0.28303271  0.77825069  0.97262932     0.03800
C2083       C  0.28369816  0.74844221  0.97327893    -0.12200
C2084       C  0.27906310  0.73398916  0.99916482     0.23100
C2085       C  0.27516308  0.74940685  0.02453648    -0.12800
C2086       C  0.27865957  0.77924355  0.02449449     0.04600
C2087       C  0.27358310  0.70297351  0.99877390     0.27000
C2088       C  0.24702006  0.69248105  0.98892305    -0.13500
C2089       C  0.24169771  0.66303498  0.98802668     0.05100
C2090       C  0.26250522  0.64411535  0.99788537    -0.09400
C2091       C  0.28939884  0.65454769  0.00686948     0.05900
C2092       C  0.29483003  0.68404236  0.00766800    -0.13800
Br2093     Br  0.26322589  0.72943569  0.05888506    -0.05900
Br2094     Br  0.26784941  0.79447489  0.93771143    -0.00300
Br2095     Br  0.20611695  0.64869425  0.97281161     0.00200
Br2096     Br  0.33117883  0.69862402  0.02098202    -0.04200
Br2097     Br  0.26986083  0.79889585  0.05939481     0.00300
Br2098     Br  0.28842376  0.72723084  0.93816168    -0.03500
Br2099     Br  0.21773746  0.71853425  0.97705043    -0.04400
Br2100     Br  0.31944412  0.62839483  0.01588219    -0.00400
C2101       C  0.10142723  0.94605611  0.01129024     0.01000
C2102       C  0.10812150  0.92803965  0.03474353     0.03800
C2103       C  0.13626779  0.91813374  0.03842262    -0.12200
C2104       C  0.15790373  0.92617676  0.01896495     0.23100
C2105       C  0.15175865  0.94468156  0.99634837    -0.12800
C2106       C  0.12364747  0.95290370  0.99109530     0.04600
C2107       C  0.18557933  0.91122761  0.01764342     0.27000
C2108       C  0.20966232  0.92140105  0.03280961    -0.13500
C2109       C  0.23689927  0.91005243  0.02722119     0.05100
C2110       C  0.24023751  0.88933342  0.00548630    -0.09400
C2111       C  0.21631269  0.88148610  0.98861221     0.05900
C2112       C  0.18904134  0.89091842  0.99578739    -0.13800
Br2113     Br  0.18256730  0.95768004  0.97150068    -0.05900
Br2114     Br  0.07855662  0.91353108  0.05988328    -0.00300
Br2115     Br  0.26912019  0.92368687  0.04901676     0.00200
Br2116     Br  0.15624882  0.87719012  0.97437475    -0.04200
Br2117     Br  0.11784623  0.97246242  0.95472533     0.00300
Br2118     Br  0.14534303  0.89322558  0.06986856    -0.03500
Br2119     Br  0.20521194  0.95160967  0.06036673    -0.04400
Br2120     Br  0.22102902  0.85955721  0.95392318    -0.00400
C2121       C  0.20888833  0.01641955  0.28924662     0.01000
C2122       C  0.21988946  0.03044276  0.26432695     0.03800
C2123       C  0.24851693  0.02736592  0.25613100    -0.12200
C2124       C  0.26767104  0.01370952  0.27441524     0.23100
C2125       C  0.25819828  0.00344459  0.30113091    -0.12800
C2126       C  0.22929781  0.00582913  0.30907375     0.04600
C2127       C  0.29848306  0.01376891  0.26718093     0.27000
C2128       C  0.30925059  0.99429619  0.24714070    -0.13500
C2129       C  0.33833886  0.99526459  0.23959715     0.05100
C2130       C  0.35726567  0.01444671  0.25365113    -0.09400
C2131       C  0.34634356  0.03297445  0.27473712     0.05900
C2132       C  0.31697505  0.03369917  0.28027867    -0.13800
Br2133     Br  0.28527033  0.98633172  0.32698103    -0.05900
Br2134     Br  0.19946652  0.05986221  0.24474555    -0.00300
Br2135     Br  0.35162507  0.97044869  0.20968933     0.00200
Br2136     Br  0.30206046  0.06199018  0.30616772    -0.04200
Br2137     Br  0.21993402  0.99959870  0.34890820     0.00300
Br2138     Br  0.26199674  0.04290137  0.22002827    -0.03500
Br2139     Br  0.28406721  0.96588528  0.23060968    -0.04400
Br2140     Br  0.37126248  0.05492525  0.29913669    -0.00400
C2141       C  0.77340712  0.00324019  0.29174991     0.01000
C2142       C  0.75850725  0.02822253  0.28347897     0.03800
C2143       C  0.72869487  0.02789460  0.28064174    -0.12200
C2144       C  0.71361452  0.00193990  0.27988388     0.23100
C2145       C  0.72846552  0.97632592  0.28301589    -0.12800
C2146       C  0.75817767  0.97669148  0.28871834     0.04600
C2147       C  0.68259825  0.00179448  0.27294503     0.27000
C2148       C  0.66228792  0.00085716  0.29514008    -0.13500
C2149       C  0.63300251  0.00218881  0.28868387     0.05100
C2150       C  0.62393969  0.00540854  0.26004075    -0.09400
C2151       C  0.64421878  0.00691152  0.23786953     0.05900
C2152       C  0.67345921  0.00434498  0.24421721    -0.13800
Br2153     Br  0.70778817  0.94073371  0.27789705    -0.05900
Br2154     Br  0.77821794  0.06115105  0.26801759    -0.00300
Br2155     Br  0.60530663  0.00021247  0.31922526     0.00200
Br2156     Br  0.70106327  0.00416928  0.21361110    -0.04200
Br2157     Br  0.77711064  0.94050602  0.28576240     0.00300
Br2158     Br  0.70836128  0.06324470  0.27690635    -0.03500
Br2159     Br  0.67480102  0.99835456  0.33441492    -0.04400
Br2160     Br  0.63182966  0.01336979  0.19900610    -0.00400
C2161       C  0.42429254  0.93832523  0.33664572     0.01000
C2162       C  0.43755724  0.91296590  0.34524523     0.03800
C2163       C  0.42477534  0.89548288  0.36618147    -0.12200
C2164       C  0.39799729  0.90258857  0.37752717     0.23100
C2165       C  0.38369936  0.92681887  0.36737257    -0.12800
C2166       C  0.39698825  0.94486948  0.34711786     0.04600
C2167       C  0.38509756  0.88461068  0.40031799     0.27000
C2168       C  0.37038116  0.85932366  0.39321898    -0.13500
C2169       C  0.35837508  0.84215393  0.41493128     0.05100
C2170       C  0.36124686  0.84993388  0.44413654    -0.09400
C2171       C  0.37761405  0.87465515  0.45101992     0.05900
C2172       C  0.38888784  0.89217203  0.42917133    -0.13800
Br2173     Br  0.34574494  0.93474227  0.38085585    -0.05900
Br2174     Br  0.47242044  0.90131650  0.32707940    -0.00300
Br2175     Br  0.34010641  0.80688553  0.40403624     0.00200
Br2176     Br  0.40977586  0.92679727  0.43852997    -0.04200
Br2177     Br  0.37755711  0.97799902  0.33303856     0.00300
Br2178     Br  0.44376531  0.86162413  0.37926487    -0.03500
Br2179     Br  0.36729900  0.84806580  0.35352042    -0.04400
Br2180     Br  0.38548153  0.88543606  0.48982478    -0.00400
C2181       C  0.55070811  0.93629138  0.34026680     0.01000
C2182       C  0.53918925  0.93465337  0.36848853     0.03800
C2183       C  0.55264929  0.91823768  0.38972551    -0.12200
C2184       C  0.57643557  0.90171776  0.38287545     0.23100
C2185       C  0.58731680  0.90211257  0.35482899    -0.12800
C2186       C  0.57531916  0.91992894  0.33383327     0.04600
C2187       C  0.59087560  0.88469820  0.40542551     0.27000
C2188       C  0.61614862  0.89521278  0.41800296    -0.13500
C2189       C  0.63085752  0.87875208  0.43829996     0.05100
C2190       C  0.62001242  0.85150222  0.44675510    -0.09400
C2191       C  0.59404265  0.84151251  0.43454549     0.05900
C2192       C  0.57966776  0.85802490  0.41393873    -0.13800
Br2193     Br  0.61908312  0.87799807  0.34544568    -0.05900
Br2194     Br  0.50410717  0.95324806  0.37897529    -0.00300
Br2195     Br  0.66451810  0.89549883  0.45591168     0.00200
Br2196     Br  0.54432687  0.84434421  0.39723457    -0.04200
Br2197     Br  0.59468113  0.92231691  0.29720931     0.00300
Br2198     Br  0.53877658  0.91851666  0.42870155    -0.03500
Br2199     Br  0.62992773  0.93297023  0.40794428    -0.04400
Br2200     Br  0.57798979  0.80495797  0.44488570    -0.00400
C2201       C  0.35831458  0.16459434  0.44879293     0.01000
C2202       C  0.38658915  0.16952264  0.43828388     0.03800
C2203       C  0.39803736  0.15182347  0.41693485    -0.12200
C2204       C  0.38136754  0.12999752  0.40455625     0.23100
C2205       C  0.35326244  0.12532578  0.41395789    -0.12800
C2206       C  0.34223113  0.14137832  0.43683296     0.04600
C2207       C  0.39406257  0.11169115  0.38201052     0.27000
C2208       C  0.39851838  0.12275301  0.35440030    -0.13500
C2209       C  0.41541565  0.10802240  0.33455706     0.05100
C2210       C  0.42531937  0.08012359  0.34090960    -0.09400
C2211       C  0.41854678  0.06816050  0.36821127     0.05900
C2212       C  0.40413105  0.08444600  0.38892703    -0.13800
Br2213     Br  0.32991907  0.09664483  0.39517540    -0.05900
Br2214     Br  0.41105491  0.20029684  0.45123639    -0.00300
Br2215     Br  0.42631790  0.12818287  0.29997422     0.00200
Br2216     Br  0.39853537  0.06982016  0.42729993    -0.04200
Br2217     Br  0.30670164  0.12788010  0.45352333     0.00300
Br2218     Br  0.43713927  0.15723346  0.40426210    -0.03500
Br2219     Br  0.38155626  0.15867329  0.34415987    -0.04400
Br2220     Br  0.42738330  0.02919135  0.37790551    -0.00400
C2221       C  0.49694202  0.14495536  0.23426196     0.01000
C2222       C  0.49146483  0.15555368  0.20650063     0.03800
C2223       C  0.49228004  0.18515188  0.20120547    -0.12200
C2224       C  0.49961969  0.20429638  0.22337962     0.23100
C2225       C  0.50556506  0.19358352  0.25103013    -0.12800
C2226       C  0.50372725  0.16405442  0.25653122     0.04600
C2227       C  0.49894104  0.23572377  0.21829548     0.27000
C2228       C  0.52436269  0.25174788  0.21523405    -0.13500
C2229       C  0.52357869  0.28175220  0.21318487     0.05100
C2230       C  0.49710738  0.29585585  0.20956938    -0.09400
C2231       C  0.47195698  0.27987078  0.21654838     0.05900
C2232       C  0.47282858  0.24999090  0.21965230    -0.13800
Br2233     Br  0.51547306  0.21945167  0.28163965    -0.05900
Br2234     Br  0.48319774  0.12949716  0.17557288    -0.00300
Br2235     Br  0.55791789  0.30256725  0.22374220     0.00200
Br2236     Br  0.43806356  0.22829423  0.22620366    -0.04200
Br2237     Br  0.50899742  0.14965801  0.29488283     0.00300
Br2238     Br  0.48245265  0.19965740  0.16382137    -0.03500
Br2239     Br  0.56042794  0.23248316  0.21404544    -0.04400
Br2240     Br  0.43705663  0.29830239  0.22748692    -0.00400
C2241       C  0.49330551  0.72700522  0.20476531     0.01000
C2242       C  0.50264324  0.74732034  0.18371849     0.03800
C2243       C  0.50285136  0.77671813  0.18993406    -0.12200
C2244       C  0.48946356  0.78678286  0.21469870     0.23100
C2245       C  0.47580553  0.76739703  0.23327318    -0.12800
C2246       C  0.47739449  0.73779487  0.22837409     0.04600
C2247       C  0.48825111  0.81790707  0.22063123     0.27000
C2248       C  0.50895526  0.83074411  0.23831903    -0.13500
C2249       C  0.50643122  0.85942613  0.24658411     0.05100
C2250       C  0.48419732  0.87639654  0.23547168    -0.09400
C2251       C  0.46272805  0.86295658  0.21837721     0.05900
C2252       C  0.46522514  0.83402838  0.21056740    -0.13800
Br2253     Br  0.45456642  0.78190527  0.26549220    -0.05900
Br2254     Br  0.50785704  0.73759378  0.14378523    -0.00300
Br2255     Br  0.53174802  0.87394398  0.27593903     0.00200
Br2256     Br  0.43758332  0.81632751  0.18523379    -0.04200
Br2257     Br  0.45450776  0.71326347  0.25274436     0.00300
Br2258     Br  0.52106347  0.80363987  0.16418177    -0.03500
Br2259     Br  0.54138250  0.80893125  0.25048441    -0.04400
Br2260     Br  0.42898575  0.88279652  0.20612048    -0.00400
C2261       C  0.56689122  0.07610360  0.15245221     0.01000
C2262       C  0.58063780  0.10273276  0.15827365     0.03800
C2263       C  0.59899350  0.11543249  0.13780231    -0.12200
C2264       C  0.60242358  0.10290821  0.11067202     0.23100
C2265       C  0.58821197  0.07712028  0.10430385    -0.12800
C2266       C  0.57131438  0.06331154  0.12521806     0.04600
C2267       C  0.62006723  0.11748399  0.08834823     0.27000
C2268       C  0.60884189  0.14053336  0.07300926    -0.13500
C2269       C  0.62547895  0.15479236  0.05214457     0.05100
C2270       C  0.65363553  0.14577335  0.04591827    -0.09400
C2271       C  0.66418465  0.12167954  0.06071549     0.05900
C2272       C  0.64762987  0.10792073  0.08199480    -0.13800
Br2273     Br  0.59179802  0.06091418  0.06642017    -0.05900
Br2274     Br  0.57327765  0.12360859  0.19312503    -0.00300
Br2275     Br  0.60809225  0.18547929  0.03139837     0.00200
Br2276     Br  0.66248481  0.07551183  0.10245658    -0.04200
Br2277     Br  0.55599480  0.02606357  0.11601446     0.00300
Br2278     Br  0.61958151  0.15033141  0.14661259    -0.03500
Br2279     Br  0.56994575  0.15175452  0.08015858    -0.04400
Br2280     Br  0.70131271  0.10686017  0.05268521    -0.00400
C2281       C  0.64493135  0.87708270  0.04636406     0.01000
C2282       C  0.64955708  0.90534768  0.05664125     0.03800
C2283       C  0.62981345  0.91778441  0.07522016    -0.12200
C2284       C  0.60611935  0.90199303  0.08483758     0.23100
C2285       C  0.60091362  0.87429633  0.07474390    -0.12800
C2286       C  0.61973575  0.86200379  0.05504700     0.04600
C2287       C  0.58774568  0.91428805  0.10706144     0.27000
C2288       C  0.59559177  0.91139440  0.13584886    -0.13500
C2289       C  0.58144461  0.92689597  0.15710314     0.05100
C2290       C  0.55712243  0.94341590  0.14987188    -0.09400
C2291       C  0.54799994  0.94404414  0.12066001     0.05900
C2292       C  0.56424164  0.93071093  0.09936122    -0.13800
Br2293     Br  0.56742290  0.85360814  0.08776414    -0.05900
Br2294     Br  0.68262651  0.92817157  0.04701809    -0.00300
Br2295     Br  0.59802635  0.92617791  0.19514527     0.00200
Br2296     Br  0.55508185  0.93544115  0.05923960    -0.04200
Br2297     Br  0.60785444  0.82634374  0.03748880     0.00300
Br2298     Br  0.63483784  0.95689494  0.08781850    -0.03500
Br2299     Br  0.62667633  0.88649074  0.14570072    -0.04400
Br2300     Br  0.51280202  0.96146463  0.10846598    -0.00400
C2301       C  0.42211305  0.95107449  0.14683065     0.01000
C2302       C  0.39714021  0.96423420  0.13702288     0.03800
C2303       C  0.37945961  0.95022883  0.11705562    -0.12200
C2304       C  0.38701062  0.92323191  0.10659232     0.23100
C2305       C  0.41260463  0.91061039  0.11545913    -0.12800
C2306       C  0.43036496  0.92471062  0.13532973     0.04600
C2307       C  0.36875890  0.90885917  0.08503661     0.27000
C2308       C  0.34609221  0.89104899  0.09377042    -0.13500
C2309       C  0.32754305  0.87910373  0.07325358     0.05100
C2310       C  0.33317876  0.88248259  0.04363216    -0.09400
C2311       C  0.35648733  0.90010490  0.03511903     0.05900
C2312       C  0.37376478  0.91367303  0.05578930    -0.13800
Br2313     Br  0.42319232  0.87409587  0.10013227    -0.05900
Br2314     Br  0.38800784  0.00206327  0.14987249    -0.00300
Br2315     Br  0.29280731  0.86129678  0.08642165     0.00200
Br2316     Br  0.40491461  0.93863788  0.04433252    -0.04200
Br2317     Br  0.46650089  0.90857240  0.14580245     0.00300
Br2318     Br  0.34508819  0.96806403  0.10365204    -0.03500
Br2319     Br  0.34098618  0.88259425  0.13394990    -0.04400
Br2320     Br  0.36619682  0.90566252  0.99562101    -0.00400
C2321       C  0.33538202  0.14200415  0.04350525     0.01000
C2322       C  0.32844619  0.11390953  0.05325376     0.03800
C2323       C  0.34677851  0.09965304  0.07228622    -0.12200
C2324       C  0.37080185  0.11383964  0.08372348     0.23100
C2325       C  0.37784933  0.14151675  0.07442535    -0.12800
C2326       C  0.36127221  0.15489967  0.05337451     0.04600
C2327       C  0.38834534  0.10000071  0.10615063     0.27000
C2328       C  0.37764400  0.09718297  0.13417055    -0.13500
C2329       C  0.39384805  0.08363500  0.15541904     0.05100
C2330       C  0.42239771  0.07562257  0.14964964    -0.09400
C2331       C  0.43359441  0.08018461  0.12171427     0.05900
C2332       C  0.41602283  0.09070468  0.09978536    -0.13800
Br2333     Br  0.41043718  0.16131056  0.09091978    -0.05900
Br2334     Br  0.29363893  0.09415638  0.04267748    -0.00300
Br2335     Br  0.37527247  0.07475601  0.19141628     0.00200
Br2336     Br  0.42984414  0.09252895  0.06080841    -0.04200
Br2337     Br  0.37674450  0.18958591  0.03686256     0.00300
Br2338     Br  0.33929758  0.06032897  0.08288994    -0.03500
Br2339     Br  0.34081471  0.11264186  0.14358298    -0.04400
Br2340     Br  0.47350402  0.07456462  0.11318595    -0.00400
C2341       C  0.86255123  0.24366731  0.49461328     0.01000
C2342       C  0.85461657  0.21492723  0.49950637     0.03800
C2343       C  0.82573575  0.20644000  0.49904569    -0.12200
C2344       C  0.80466410  0.22657349  0.49308905     0.23100
C2345       C  0.81249894  0.25520850  0.48766951    -0.12800
C2346       C  0.84139957  0.26365365  0.48821592     0.04600
C2347       C  0.77408488  0.21821038  0.49386403     0.27000
C2348       C  0.75914765  0.21303644  0.46827429    -0.13500
C2349       C  0.72920532  0.20984081  0.46853837     0.05100
C2350       C  0.71415029  0.20819968  0.49508691    -0.09400
C2351       C  0.72931514  0.21732233  0.52000937     0.05900
C2352       C  0.75915340  0.22033812  0.51971649    -0.13800
Br2353     Br  0.78342335  0.28301183  0.48033221    -0.05900
Br2354     Br  0.88331163  0.18677928  0.50539331    -0.00300
Br2355     Br  0.71002442  0.21719058  0.43260280     0.00200
Br2356     Br  0.77975461  0.22948888  0.55454104    -0.04200
Br2357     Br  0.85186175  0.30258891  0.48038788     0.00300
Br2358     Br  0.81478451  0.16742359  0.50707859    -0.03500
Br2359     Br  0.77989570  0.21231530  0.43253648    -0.04400
Br2360     Br  0.71004714  0.23409644  0.55211878    -0.00400
C2361       C  0.62156909  0.16690683  0.45206742     0.01000
C2362       C  0.62714586  0.13738248  0.44903884     0.03800
C2363       C  0.61168465  0.12080103  0.42902894    -0.12200
C2364       C  0.59349511  0.13396015  0.40919299     0.23100
C2365       C  0.58810199  0.16332209  0.41183821    -0.12800
C2366       C  0.60059460  0.17919427  0.43437120     0.04600
C2367       C  0.57976570  0.11657376  0.38606305     0.27000
C2368       C  0.59611174  0.10671729  0.36283997    -0.13500
C2369       C  0.58350410  0.08930287  0.34154936     0.05100
C2370       C  0.55430962  0.08110028  0.34346005    -0.09400
C2371       C  0.53819578  0.09065806  0.36725174     0.05900
C2372       C  0.55084056  0.10841523  0.38820996    -0.13800
Br2373     Br  0.56383310  0.18190141  0.38434032    -0.05900
Br2374     Br  0.65473656  0.11874304  0.47309504    -0.00300
Br2375     Br  0.60723219  0.07586624  0.31070394     0.00200
Br2376     Br  0.52865799  0.12116516  0.42053324    -0.04200
Br2377     Br  0.58794856  0.21732762  0.44114333     0.00300
Br2378     Br  0.61406927  0.07971828  0.42952991    -0.03500
Br2379     Br  0.63620173  0.11667212  0.36059554    -0.04400
Br2380     Br  0.49842307  0.08049066  0.37155276    -0.00400
C2381       C  0.62172797  0.25688384  0.50380230     0.01000
C2382       C  0.61096354  0.26412978  0.53106065     0.03800
C2383       C  0.60155292  0.29193525  0.53651805    -0.12200
C2384       C  0.60080237  0.31218362  0.51428611     0.23100
C2385       C  0.61011183  0.30468236  0.48664726    -0.12800
C2386       C  0.62184545  0.27766147  0.48175760     0.04600
C2387       C  0.58946553  0.34108164  0.51980889     0.27000
C2388       C  0.55988233  0.34459023  0.52327900    -0.13500
C2389       C  0.54889894  0.37193591  0.52717352     0.05100
C2390       C  0.56697190  0.39603318  0.52549286    -0.09400
C2391       C  0.59668253  0.39264843  0.52407007     0.05900
C2392       C  0.60801159  0.36505912  0.52173129    -0.13800
Br2393     Br  0.60668277  0.33151550  0.45547793    -0.05900
Br2394     Br  0.61074274  0.23700643  0.56191788    -0.00300
Br2395     Br  0.50908343  0.37663494  0.53562763     0.00200
Br2396     Br  0.64873735  0.36005618  0.52102076    -0.04200
Br2397     Br  0.63970628  0.27013310  0.44529171     0.00300
Br2398     Br  0.59070350  0.30283498  0.57486308    -0.03500
Br2399     Br  0.53416862  0.31212909  0.52160948    -0.04400
Br2400     Br  0.62148142  0.42576243  0.52528468    -0.00400
C2401       C  0.20788284  0.01291574  0.70136057     0.01000
C2402       C  0.22603580  0.03760940  0.69983123     0.03800
C2403       C  0.25543004  0.03572182  0.70585972    -0.12200
C2404       C  0.26650000  0.01096072  0.71814916     0.23100
C2405       C  0.24830215  0.98767028  0.72372321    -0.12800
C2406       C  0.21942750  0.98827406  0.71525590     0.04600
C2407       C  0.29737877  0.00944859  0.72537450     0.27000
C2408       C  0.31599595  0.99558036  0.70655440    -0.13500
C2409       C  0.34527402  0.99417953  0.71288282     0.05100
C2410       C  0.35641346  0.00738831  0.73782570    -0.09400
C2411       C  0.33764528  0.02126684  0.75677819     0.05900
C2412       C  0.30815560  0.02199062  0.75069651    -0.13800
Br2413     Br  0.26348496  0.95474582  0.74322037    -0.05900
Br2414     Br  0.21170718  0.07572843  0.69718956    -0.00300
Br2415     Br  0.37013628  0.97561214  0.68600464     0.00200
Br2416     Br  0.28232088  0.04015714  0.77691035    -0.04200
Br2417     Br  0.19669431  0.95491362  0.72513913     0.00300
Br2418     Br  0.28101435  0.06734324  0.69747159    -0.03500
Br2419     Br  0.30126450  0.97934389  0.67143163    -0.04400
Br2420     Br  0.35202975  0.03852275  0.79151912    -0.00400
C2421       C  0.62386878  0.00774930  0.73618049     0.01000
C2422       C  0.64176496  0.98598565  0.74671580     0.03800
C2423       C  0.66980339  0.98355493  0.73629330    -0.12200
C2424       C  0.68018161  0.00295058  0.71571835     0.23100
C2425       C  0.66304193  0.02532705  0.70612068    -0.12800
C2426       C  0.63503379  0.02776325  0.71615625     0.04600
C2427       C  0.71054388  0.00315798  0.70755254     0.27000
C2428       C  0.72902023  0.02160951  0.72237789    -0.13500
C2429       C  0.75677526  0.02610319  0.71235586     0.05100
C2430       C  0.76786917  0.00893459  0.69005664    -0.09400
C2431       C  0.74793647  0.99410252  0.67253410     0.05900
C2432       C  0.71964153  0.99018360  0.68203564    -0.13800
Br2433     Br  0.67874623  0.05361975  0.68003967    -0.05900
Br2434     Br  0.62896010  0.96061775  0.77685843    -0.00300
Br2435     Br  0.77592435  0.06036446  0.72470477     0.00200
Br2436     Br  0.69288643  0.96844841  0.65936783    -0.04200
Br2437     Br  0.61254202  0.05834590  0.70091652     0.00300
Br2438     Br  0.69474576  0.95458190  0.75093245    -0.03500
Br2439     Br  0.71536873  0.04248691  0.75532086    -0.04400
Br2440     Br  0.75575434  0.98758627  0.63242839    -0.00400
C2441       C  0.35955035  0.16427712  0.54827010     0.01000
C2442       C  0.35948421  0.17358967  0.57717318     0.03800
C2443       C  0.37291726  0.15727310  0.59842293    -0.12200
C2444       C  0.38484531  0.13090122  0.59132713     0.23100
C2445       C  0.38356251  0.12079106  0.56305724    -0.12800
C2446       C  0.37117362  0.13745459  0.54156071     0.04600
C2447       C  0.39893555  0.11359256  0.61348567     0.27000
C2448       C  0.42886595  0.11291473  0.61452297    -0.13500
C2449       C  0.44246505  0.09478976  0.63398287     0.05100
C2450       C  0.42623990  0.07854768  0.65376255    -0.09400
C2451       C  0.39613827  0.07970978  0.65295829     0.05900
C2452       C  0.38252268  0.09675927  0.63242773    -0.13800
Br2453     Br  0.39864695  0.08370249  0.55401730    -0.05900
Br2454     Br  0.34069697  0.20819522  0.58848252    -0.00300
Br2455     Br  0.48336670  0.09270576  0.63332147     0.00200
Br2456     Br  0.34139512  0.09680120  0.62968183    -0.04200
Br2457     Br  0.36829345  0.12166652  0.50370675     0.00300
Br2458     Br  0.37555360  0.17105448  0.63732805    -0.03500
Br2459     Br  0.45112376  0.13716091  0.58925319    -0.04400
Br2460     Br  0.37330328  0.05710298  0.67893242    -0.00400
C2461       C  0.62600880  0.16728751  0.54924914     0.01000
C2462       C  0.60017866  0.15151814  0.54400838     0.03800
C2463       C  0.58579649  0.13733200  0.56650767    -0.12200
C2464       C  0.59813158  0.13576434  0.59379566     0.23100
C2465       C  0.62392891  0.15009271  0.59932836    -0.12800
C2466       C  0.63695090  0.16699495  0.57788784     0.04600
C2467       C  0.58460580  0.11734920  0.61597773     0.27000
C2468       C  0.56819455  0.12932871  0.63804018    -0.13500
C2469       C  0.55366478  0.11148981  0.65758431     0.05100
C2470       C  0.55498843  0.08151804  0.65475671    -0.09400
C2471       C  0.57098857  0.06963742  0.63221343     0.05900
C2472       C  0.58654917  0.08752834  0.61356893    -0.13800
Br2473     Br  0.64167419  0.14573980  0.63651591    -0.05900
Br2474     Br  0.58437589  0.14536226  0.50644592    -0.00300
Br2475     Br  0.52999502  0.12836874  0.68674855     0.00200
Br2476     Br  0.61089390  0.07135454  0.58462176    -0.04200
Br2477     Br  0.66800207  0.19108442  0.59036674     0.00300
Br2478     Br  0.54913138  0.11874383  0.56006649    -0.03500
Br2479     Br  0.56520687  0.17019280  0.64112525    -0.04400
Br2480     Br  0.57177235  0.02897582  0.62641767    -0.00400
C2481       C  0.55595453  0.93885698  0.65304000     0.01000
C2482       C  0.58500332  0.94427072  0.64710253     0.03800
C2483       C  0.59895773  0.92849886  0.62579888    -0.12200
C2484       C  0.58472131  0.90559569  0.61220195     0.23100
C2485       C  0.55624470  0.89892251  0.61960526    -0.12800
C2486       C  0.54162600  0.91607671  0.63930108     0.04600
C2487       C  0.59918715  0.88929889  0.58920752     0.27000
C2488       C  0.59316170  0.89537803  0.56041415    -0.13500
C2489       C  0.60525980  0.87902202  0.53836661     0.05100
C2490       C  0.62493700  0.85714592  0.54479429    -0.09400
C2491       C  0.63152338  0.85179274  0.57406976     0.05900
C2492       C  0.61851194  0.86768531  0.59602489    -0.13800
Br2493     Br  0.53752969  0.86596135  0.60304148    -0.05900
Br2494     Br  0.60586785  0.97273905  0.66860358    -0.00300
Br2495     Br  0.59432936  0.88791500  0.49978025     0.00200
Br2496     Br  0.62686777  0.85990446  0.63576939    -0.04200
Br2497     Br  0.50220958  0.90785706  0.64810729     0.00300
Br2498     Br  0.63724556  0.93866968  0.61441778    -0.03500
Br2499     Br  0.56878011  0.92711796  0.55143656    -0.04400
Br2500     Br  0.65637057  0.82112279  0.58508104    -0.00400
C2501       C  0.36034398  0.84772091  0.54254461     0.01000
C2502       C  0.35016519  0.87512281  0.55037661     0.03800
C2503       C  0.36413827  0.89122794  0.57181811    -0.12200
C2504       C  0.38854927  0.88067002  0.58547448     0.23100
C2505       C  0.39884597  0.85366153  0.57783461    -0.12800
C2506       C  0.38464949  0.83708660  0.55683349     0.04600
C2507       C  0.40373344  0.89842678  0.60739539     0.27000
C2508       C  0.42148350  0.92129317  0.59884257    -0.13500
C2509       C  0.43434224  0.93944836  0.61945167     0.05100
C2510       C  0.43116870  0.93360263  0.64939525    -0.09400
C2511       C  0.41579934  0.90827734  0.65732364     0.05900
C2512       C  0.40043890  0.89242421  0.63667716    -0.13800
Br2513     Br  0.43303172  0.83975125  0.59583905    -0.05900
Br2514     Br  0.31900084  0.89286757  0.53015461    -0.00300
Br2515     Br  0.45653304  0.97144316  0.60494977     0.00200
Br2516     Br  0.37400105  0.86271779  0.64854644    -0.04200
Br2517     Br  0.39821086  0.79928796  0.54908448     0.00300
Br2518     Br  0.35048622  0.92855194  0.58207585    -0.03500
Br2519     Br  0.42781196  0.92760191  0.55834954    -0.04400
Br2520     Br  0.41824065  0.89172317  0.69526386    -0.00400
C2521       C  0.49196371  0.14103716  0.76703826     0.01000
C2522       C  0.51172804  0.15163837  0.78774261     0.03800
C2523       C  0.50957401  0.17958346  0.79847174    -0.12200
C2524       C  0.48848892  0.19783363  0.78801746     0.23100
C2525       C  0.46897173  0.18779202  0.76731385    -0.12800
C2526       C  0.47069485  0.15966997  0.75673913     0.04600
C2527       C  0.48997422  0.22873316  0.79530441     0.27000
C2528       C  0.47868628  0.23924515  0.82108501    -0.13500
C2529       C  0.48156947  0.26854593  0.82798339     0.05100
C2530       C  0.49415501  0.28804536  0.80796687    -0.09400
C2531       C  0.50958839  0.27592776  0.78483822     0.05900
C2532       C  0.50612924  0.24701040  0.77769049    -0.13800
Br2533     Br  0.44023997  0.21319503  0.75308654    -0.05900
Br2534     Br  0.54246114  0.12897044  0.80196487    -0.00300
Br2535     Br  0.47439813  0.27929610  0.86726836     0.00200
Br2536     Br  0.52446710  0.23189469  0.74391784    -0.04200
Br2537     Br  0.44507752  0.14788686  0.72641895     0.00300
Br2538     Br  0.53593448  0.19340876  0.82742412    -0.03500
Br2539     Br  0.46034369  0.21296280  0.84736624    -0.04400
Br2540     Br  0.53960064  0.29663859  0.76554247    -0.00400
C2541       C  0.48894478  0.87311855  0.75280873     0.01000
C2542       C  0.51107667  0.85607057  0.74156909     0.03800
C2543       C  0.51181129  0.82664728  0.74778538    -0.12200
C2544       C  0.48957164  0.81359325  0.76343399     0.23100
C2545       C  0.46637279  0.82991185  0.77255954    -0.12800
C2546       C  0.46670309  0.85965284  0.76870871     0.04600
C2547       C  0.49132040  0.78318904  0.77234153     0.27000
C2548       C  0.47886033  0.76158429  0.75552647    -0.13500
C2549       C  0.47802025  0.73318603  0.76549250     0.05100
C2550       C  0.49229689  0.72545983  0.79129807    -0.09400
C2551       C  0.50120946  0.74819532  0.80970627     0.05900
C2552       C  0.50208825  0.77649276  0.79957484    -0.13800
Br2553     Br  0.43407109  0.81123750  0.79061665    -0.05900
Br2554     Br  0.54013347  0.87219919  0.71679526    -0.00300
Br2555     Br  0.45254437  0.70701884  0.74601470     0.00200
Br2556     Br  0.51745038  0.80668571  0.82342114    -0.04200
Br2557     Br  0.43798188  0.88138866  0.78836472     0.00300
Br2558     Br  0.54340488  0.80396654  0.73520610    -0.03500
Br2559     Br  0.46237592  0.77133635  0.71893324    -0.04400
Br2560     Br  0.50604590  0.74315133  0.85058939    -0.00400
C2561       C  0.42519655  0.07430002  0.84467948     0.01000
C2562       C  0.42203024  0.06377072  0.87311473     0.03800
C2563       C  0.40813329  0.08019665  0.89400985    -0.12200
C2564       C  0.39447414  0.10556367  0.88623008     0.23100
C2565       C  0.39681791  0.11584870  0.85809135    -0.12800
C2566       C  0.41338790  0.10128306  0.83788236     0.04600
C2567       C  0.37563662  0.11999159  0.90711990     0.27000
C2568       C  0.34884593  0.10792003  0.91331157    -0.13500
C2569       C  0.33181050  0.11924134  0.93522906     0.05100
C2570       C  0.33989462  0.14533269  0.94909617    -0.09400
C2571       C  0.36707253  0.15762128  0.94202541     0.05900
C2572       C  0.38476392  0.14478490  0.92140326    -0.13800
Br2573     Br  0.37624902  0.14953762  0.84704095    -0.05900
Br2574     Br  0.43384276  0.02590673  0.88380651    -0.00300
Br2575     Br  0.29886243  0.09636316  0.94559023     0.00200
Br2576     Br  0.42186414  0.16100018  0.91236621    -0.04200
Br2577     Br  0.42053446  0.12011528  0.80174669     0.00300
Br2578     Br  0.40708521  0.06782990  0.93352282    -0.03500
Br2579     Br  0.33528049  0.07591783  0.89057069    -0.04400
Br2580     Br  0.38261368  0.19042433  0.96185979    -0.00400
C2581       C  0.41269094  0.94589879  0.83877062     0.01000
C2582       C  0.38419709  0.93800790  0.83116632     0.03800
C2583       C  0.36596970  0.92519554  0.85160212    -0.12200
C2584       C  0.37452627  0.92334080  0.88040810     0.23100
C2585       C  0.40206286  0.93272662  0.88838355    -0.12800
C2586       C  0.42171758  0.94171605  0.86741627     0.04600
C2587       C  0.35602456  0.90871269  0.90191145     0.27000
C2588       C  0.33184617  0.92202660  0.91338003    -0.13500
C2589       C  0.31510100  0.90799484  0.93439045     0.05100
C2590       C  0.32408196  0.88177676  0.94622985    -0.09400
C2591       C  0.34925693  0.86912338  0.93508248     0.05900
C2592       C  0.36369158  0.88160964  0.91178580    -0.13800
Br2593     Br  0.41305824  0.93273350  0.92825836    -0.05900
Br2594     Br  0.36867317  0.94512006  0.79346468    -0.00300
Br2595     Br  0.27929476  0.92442324  0.94540331     0.00200
Br2596     Br  0.39451494  0.86167999  0.89328273    -0.04200
Br2597     Br  0.46157780  0.94439861  0.87795358     0.00300
Br2598     Br  0.32963573  0.90895705  0.84001284    -0.03500
Br2599     Br  0.32208808  0.95977549  0.90055589    -0.04400
Br2600     Br  0.36751751  0.83710974  0.95345206    -0.00400
C2601       C  0.56224530  0.94209029  0.84120431     0.01000
C2602       C  0.58135818  0.95742223  0.85901469     0.03800
C2603       C  0.59847044  0.94289239  0.87896881    -0.12200
C2604       C  0.59652821  0.91295541  0.88140529     0.23100
C2605       C  0.57771661  0.89759306  0.86336234    -0.12800
C2606       C  0.56111086  0.91204814  0.84291572     0.04600
C2607       C  0.61312183  0.89805272  0.90412091     0.27000
C2608       C  0.63958303  0.88569993  0.89800486    -0.13500
C2609       C  0.65564076  0.87275631  0.92002428     0.05100
C2610       C  0.64630783  0.87359010  0.94894721    -0.09400
C2611       C  0.61979579  0.88678921  0.95473404     0.05900
C2612       C  0.60296234  0.89781249  0.93236888    -0.13800
Br2613     Br  0.57394681  0.85683044  0.86746941    -0.05900
Br2614     Br  0.58534928  0.99817949  0.85506015    -0.00300
Br2615     Br  0.69117676  0.85545185  0.91001590     0.00200
Br2616     Br  0.56561171  0.91308712  0.94013973    -0.04200
Br2617     Br  0.53656744  0.89064244  0.81733416     0.00300
Br2618     Br  0.62453239  0.96391960  0.90336041    -0.03500
Br2619     Br  0.65424334  0.88779025  0.85942971    -0.04400
Br2620     Br  0.60535188  0.89084532  0.99276446    -0.00400
C2621       C  0.56076855  0.07188261  0.84426269     0.01000
C2622       C  0.54827592  0.07774505  0.87130613     0.03800
C2623       C  0.56429330  0.09168286  0.89280269    -0.12200
C2624       C  0.59178851  0.10251088  0.88671678     0.23100
C2625       C  0.60314097  0.09947106  0.85905053    -0.12800
C2626       C  0.58867813  0.08279612  0.83847600     0.04600
C2627       C  0.60945129  0.11614904  0.90955489     0.27000
C2628       C  0.60341406  0.14366312  0.91919445    -0.13500
C2629       C  0.62002003  0.15637146  0.94102815     0.05100
C2630       C  0.64537616  0.14302166  0.95134012    -0.09400
C2631       C  0.65101273  0.11482991  0.94124189     0.05900
C2632       C  0.63265178  0.10149492  0.92117580    -0.13800
Br2633     Br  0.63840572  0.11904982  0.84932832    -0.05900
Br2634     Br  0.50848694  0.06938591  0.87888339    -0.00300
Br2635     Br  0.60460783  0.19053525  0.95776121     0.00200
Br2636     Br  0.63938362  0.06276384  0.90867874    -0.04200
Br2637     Br  0.60859357  0.07449120  0.80321321     0.00300
Br2638     Br  0.54839529  0.09627930  0.93067144    -0.03500
Br2639     Br  0.57237990  0.16419814  0.90165544    -0.04400
Br2640     Br  0.68379909  0.09298882  0.95250236    -0.00400
loop_ 
_geom_bond_atom_site_label_1 
_geom_bond_atom_site_label_2 
_geom_bond_distance 
_geom_bond_site_symmetry_2 
_ccdc_geom_bond_type 
O1          Zr37   2.450       .  S
O1           C12   1.294       .  A
O2          Zr36   2.441       .  S
O2           C13   1.292       .  A
O3           Zr9   2.448       .  S
O3           C14   1.293       .  A
O4           Zr9   2.457       .  S
O4           C15   1.295       .  A
O5          Zr39   2.459       .  S
O5           C15   1.295       .  A
O6          Zr38   2.429       .  S
O6           C14   1.290   1_565  A
O7           Zr9   2.432       .  S
O7           C13   1.291       .  A
O8           Zr9   2.426       .  S
O8           C12   1.289       .  A
Zr9          O10   2.341       .  S
Zr9          O11   2.341       .  S
Zr9          O19   2.334       .  S
Zr9          O17   2.343       .  S
O10         Zr36   2.356       .  S
O10         Zr39   2.346       .  S
O11         Zr37   2.340       .  S
O11         Zr38   2.335   1_545  S
C12        C2621   1.498       .  S
C13        C2470   1.480       .  S
C14        C2421   1.486       .  S
C15        C2521   1.504       .  S
H16          O17   0.968       .  S
O17         Zr36   2.337       .  S
O17         Zr38   2.350   1_545  S
H18          O19   0.965       .  S
O19         Zr37   2.334       .  S
O19         Zr39   2.341       .  S
O20         Zr36   2.448   1_565  S
O20          C43   1.291       .  A
O21         Zr37   2.454   1_565  S
O21          C44   1.296       .  A
O22         Zr38   2.427       .  S
O22          C45   1.289       .  A
O23         Zr39   2.441       .  S
O23          C46   1.293       .  A
O24         Zr39   2.446       .  S
O24          C47   1.293       .  A
O25         Zr38   2.433       .  S
O25          C48   1.290       .  A
O26         Zr40   2.445       .  S
O26          C49   1.293       .  A
O27         Zr40   2.449       .  S
O27          C50   1.294   1_565  A
O28         Zr38   2.441       .  S
O28          C49   1.292       .  A
O29         Zr39   2.449       .  S
O29          C50   1.294       .  A
O30         Zr36   2.460   1_565  S
O30          C45   1.296       .  A
O31         Zr37   2.465   1_565  S
O31          C48   1.297       .  A
O32         Zr37   2.448       .  S
O32          C47   1.293       .  A
O33         Zr36   2.450       .  S
O33          C46   1.295       .  A
O34         Zr40   2.446       .  S
O34          C43   1.291       .  A
O35         Zr40   2.422       .  S
O35          C44   1.288       .  A
Zr36         O42   2.338   1_545  S
Zr36         O54   2.343       .  S
Zr37         O41   2.349       .  S
Zr37         O52   2.341   1_545  S
Zr38         O42   2.337       .  S
Zr38         O52   2.345       .  S
Zr39         O41   2.335       .  S
Zr39         O54   2.357       .  S
Zr40         O41   2.341   1_565  S
Zr40         O42   2.330       .  S
Zr40         O54   2.339   1_565  S
Zr40         O52   2.356       .  S
C43        C2510   1.517       .  S
C44        C2581   1.495       .  S
C45        C2481   1.475       .  S
C46        C2450   1.480       .  S
C47        C2561   1.501       .  S
C48        C2601   1.485       .  S
C49        C2541   1.495       .  S
C50        C2410   1.488       .  S
H51          O52   0.967       .  S
H53          O54   0.939       .  S
C55          C56   1.551       .  S
C55          C61   1.520       .  S
C55          C59   1.539       .  S
C55        C2350   1.546       .  S
C56          H63   1.084       .  S
C56          C57   1.381       .  D
C57          C58   1.557       .  S
C57        C2461   1.527       .  S
C58          C62   1.547       .  S
C58          C60   1.557       .  S
C58          H64   1.106       .  S
C59          H65   1.083       .  S
C59          C60   1.367       .  D
C60        C2361   1.503       .  S
C61          H66   1.087       .  S
C61          C62   1.350       .  D
C62        C2381   1.490       .  S
O67        Zr103   2.447       .  S
O67          C78   1.294       .  A
O68        Zr102   2.427       .  S
O68          C79   1.289       .  A
O69         Zr75   2.449       .  S
O69          C80   1.293       .  A
O70         Zr75   2.453   1_565  S
O70          C81   1.293       .  A
O71        Zr105   2.431       .  S
O71          C81   1.289       .  A
O72        Zr104   2.441       .  S
O72          C80   1.292       .  A
O73         Zr75   2.456   1_565  S
O73          C79   1.295       .  A
O74         Zr75   2.454       .  S
O74          C78   1.295       .  A
Zr75         O76   2.347   1_545  S
Zr75         O77   2.348       .  S
Zr75         O85   2.331       .  S
Zr75         O83   2.341       .  S
O76        Zr102   2.339       .  S
O76        Zr105   2.332       .  S
O77        Zr103   2.345       .  S
O77        Zr104   2.343       .  S
C78        C2370   1.499       .  S
C79        C2161   1.472       .  S
C80        C2210   1.507       .  S
C81        C2181   1.503       .  S
H82          O83   0.965       .  S
O83        Zr102   2.346   1_545  S
O83        Zr104   2.344       .  S
H84          O85   0.966       .  S
O85        Zr103   2.347       .  S
O85        Zr105   2.350   1_545  S
O86        Zr102   2.445       .  S
O86         C109   1.293       .  A
O87        Zr103   2.445       .  S
O87         C110   1.293       .  A
O88        Zr104   2.452       .  S
O88         C111   1.295       .  A
O89        Zr105   2.453       .  S
O89         C112   1.295       .  A
O90        Zr105   2.446       .  S
O90         C113   1.294   1_565  A
O91        Zr104   2.448       .  S
O91         C114   1.294       .  A
O92        Zr106   2.435       .  S
O92         C115   1.291       .  A
O93        Zr106   2.433   1_565  S
O93         C116   1.289       .  A
O94        Zr104   2.437       .  S
O94         C115   1.291       .  A
O95        Zr105   2.431       .  S
O95         C116   1.288       .  A
O96        Zr102   2.432       .  S
O96         C111   1.290   1_565  A
O97        Zr103   2.457       .  S
O97         C114   1.295       .  A
O98        Zr103   2.452       .  S
O98         C113   1.295       .  A
O99        Zr102   2.444       .  S
O99         C112   1.291       .  A
O100       Zr106   2.433   1_565  S
O100        C109   1.290       .  A
O101       Zr106   2.456       .  S
O101        C110   1.295       .  A
Zr102       O108   2.339   1_565  S
Zr102       O120   2.336       .  S
Zr103       O107   2.348       .  S
Zr103       O118   2.344       .  S
Zr104       O108   2.337       .  S
Zr104       O118   2.344       .  S
Zr105       O107   2.346   1_565  S
Zr105       O120   2.334       .  S
Zr106       O107   2.342       .  S
Zr106       O108   2.346       .  S
Zr106       O120   2.338   1_545  S
Zr106       O118   2.325       .  S
C109       C2301   1.468       .  S
C110       C2261   1.504       .  S
C111       C2130   1.487       .  S
C112       C2250   1.501       .  S
C113       C2150   1.475       .  S
C114       C2221   1.480       .  S
C115       C2330   1.493       .  S
C116       C2290   1.499       .  S
H117        O118   0.963       .  S
H119        O120   0.964       .  S
C121        C122   1.536       .  S
C121        C127   1.517   1_556  S
C121        C125   1.546   1_556  S
C121       C2081   1.544       .  S
C122        H129   1.078       .  S
C122        C123   1.361       .  D
C123        C124   1.553       .  S
C123       C2590   1.506       .  S
C124        C128   1.555   1_556  S
C124        C126   1.546   1_556  S
C124        H130   1.108       .  S
C125        H131   1.086       .  S
C125        C126   1.374       .  D
C126       C2310   1.497       .  S
C127        H132   1.087       .  S
C127        C128   1.362       .  D
C128       C2110   1.496       .  S
C133        C134   1.542       .  S
C133        C139   1.526   1_554  S
C133        C137   1.560   1_554  S
C133       C2050   1.564       .  S
C134        H141   1.082       .  S
C134        C135   1.371       .  D
C135        C136   1.544   1_554  S
C135       C2281   1.500       .  S
C136        C140   1.546       .  S
C136        C138   1.544       .  S
C136        H142   1.108       .  S
C137        H143   1.083       .  S
C137        C138   1.376       .  D
C138       C2610   1.518       .  S
C139        H144   1.087   1_556  S
C139        C140   1.360       .  D
C140       C2061   1.487   1_556  S
C145        C146   1.531       .  S
C145        C151   1.540       .  S
C145        C149   1.552       .  S
C145       C2001   1.563       .  S
C146        H153   1.086       .  S
C146        C147   1.366       .  D
C147        C148   1.554       .  S
C147       C2190   1.504       .  S
C148        C152   1.552       .  S
C148        C150   1.545       .  S
C148        H154   1.109       .  S
C149        H155   1.078       .  S
C149        C150   1.371       .  D
C150       C2490   1.511       .  S
C151        H156   1.086       .  S
C151        C152   1.370       .  D
C152       C2021   1.504       .  S
C157        C158   1.547   1_556  S
C157        C163   1.511       .  S
C157        C161   1.556       .  S
C157       C1961   1.550       .  S
C158        H165   1.083       .  S
C158        C159   1.373       .  D
C159        C160   1.538   1_554  S
C159       C2321   1.511       .  S
C160        C164   1.556       .  S
C160        C162   1.540       .  S
C160        H166   1.096       .  S
C161        H167   1.080       .  S
C161        C162   1.379       .  D
C162       C2570   1.519       .  S
C163        H168   1.088       .  S
C163        C164   1.349       .  D
C164       C1981   1.475       .  S
C169        C170   1.549       .  S
C169        C175   1.513       .  S
C169        C173   1.547   1_556  S
C169       C1921   1.546       .  S
C170        H177   1.076       .  S
C170        C171   1.377       .  D
C171        C172   1.551       .  S
C171       C2630   1.526       .  S
C172        C176   1.566       .  S
C172        C174   1.544   1_556  S
C172        H178   1.098       .  S
C173        H179   1.085       .  S
C173        C174   1.371       .  D
C174       C2270   1.509       .  S
C175        H180   1.088       .  S
C175        C176   1.349       .  D
C176       C1941   1.493       .  S
C181        C182   1.539       .  S
C181        C187   1.542       .  S
C181        C185   1.537       .  S
C181       C1881   1.550       .  S
C182        H189   1.084       .  S
C182        C183   1.375       .  D
C183        C184   1.550       .  S
C183       C2201   1.517       .  S
C184        C188   1.549       .  S
C184        C186   1.539       .  S
C184        H190   1.105       .  S
C185        H191   1.082       .  S
C185        C186   1.356       .  D
C186       C2441   1.489       .  S
C187        H192   1.085       .  S
C187        C188   1.368       .  D
C188       C1901   1.491       .  S
C193        C194   1.539       .  S
C193        C199   1.518       .  S
C193        C197   1.546       .  S
C193       C1841   1.548       .  S
C194        H201   1.081       .  S
C194        C195   1.363       .  D
C195        C196   1.552       .  S
C195       C2501   1.507       .  S
C196        C200   1.555       .  S
C196        C198   1.552       .  S
C196        H202   1.109       .  S
C197        H203   1.085       .  S
C197        C198   1.376       .  D
C198       C2170   1.501       .  S
C199        H204   1.087       .  S
C199        C200   1.359       .  D
C200       C1861   1.499       .  S
O205       Zr241   2.456       .  S
O205        C216   1.295       .  A
O206       Zr240   2.454       .  S
O206        C217   1.295   1_455  A
O207       Zr213   2.467       .  S
O207        C218   1.298       .  A
O208       Zr213   2.469       .  S
O208        C219   1.298       .  A
O209       Zr243   2.460       .  S
O209        C219   1.295       .  A
O210       Zr242   2.421       .  S
O210        C218   1.289       .  A
O211       Zr213   2.426       .  S
O211        C217   1.288       .  A
O212       Zr213   2.445       .  S
O212        C216   1.293       .  A
Zr213       O214   2.345       .  S
Zr213       O215   2.351       .  S
Zr213       O223   2.340       .  S
Zr213       O221   2.351       .  S
O214       Zr240   2.340   1_655  S
O214       Zr243   2.351       .  S
O215       Zr241   2.346       .  S
O215       Zr242   2.369       .  S
C216       C2010   1.493       .  S
C217       C1670   1.494       .  S
C218       C1721   1.471       .  S
C219       C1801   1.514       .  S
H220        O221   0.966       .  S
O221       Zr240   2.329   1_655  S
O221       Zr242   2.348       .  S
H222        O223   0.965       .  S
O223       Zr241   2.332       .  S
O223       Zr243   2.352       .  S
O224       Zr240   2.455       .  S
O224        C247   1.294       .  A
O225       Zr241   2.434       .  S
O225        C248   1.288       .  A
O226       Zr242   2.484   1_455  S
O226        C249   1.299       .  A
O227       Zr243   2.489   1_455  S
O227        C250   1.303       .  A
O228       Zr243   2.455       .  S
O228        C251   1.294       .  A
O229       Zr242   2.476       .  S
O229        C252   1.300       .  A
O230       Zr244   2.435       .  S
O230        C253   1.291       .  A
O231       Zr244   2.431       .  S
O231        C254   1.289       .  A
O232       Zr242   2.452   1_455  S
O232        C253   1.294       .  A
O233       Zr243   2.489   1_455  S
O233        C254   1.303       .  A
O234       Zr240   2.432       .  S
O234        C249   1.288       .  A
O235       Zr241   2.430       .  S
O235        C252   1.290       .  A
O236       Zr241   2.436       .  S
O236        C251   1.290       .  A
O237       Zr240   2.413       .  S
O237        C250   1.286       .  A
O238       Zr244   2.426       .  S
O238        C247   1.289       .  A
O239       Zr244   2.431       .  S
O239        C248   1.289   1_455  A
Zr240       O246   2.342       .  S
Zr240       O258   2.351       .  S
Zr241       O245   2.338       .  S
Zr241       O256   2.352       .  S
Zr242       O246   2.341   1_655  S
Zr242       O256   2.335       .  S
Zr243       O245   2.341       .  S
Zr243       O258   2.335   1_655  S
Zr244       O245   2.334   1_455  S
Zr244       O246   2.338       .  S
Zr244       O258   2.349       .  S
Zr244       O256   2.336   1_455  S
C247       C1850   1.468       .  S
C248       C1641   1.497       .  S
C249       C1710   1.519       .  S
C250       C1821   1.491       .  S
C251       C1790   1.512       .  S
C252       C1750   1.482       .  S
C253       C1690   1.489       .  S
C254       C1761   1.504       .  S
H255        O256   0.965       .  S
H257        O258   0.958       .  S
O259       Zr295   2.447       .  S
O259        C270   1.293       .  A
O260       Zr294   2.442       .  S
O260        C271   1.292   1_455  A
O261       Zr267   2.427       .  S
O261        C272   1.288       .  A
O262       Zr267   2.425       .  S
O262        C273   1.288       .  A
O263       Zr297   2.455       .  S
O263        C273   1.295       .  A
O264       Zr296   2.452       .  S
O264        C272   1.292       .  A
O265       Zr267   2.444       .  S
O265        C271   1.292       .  A
O266       Zr267   2.448       .  S
O266        C270   1.294       .  A
Zr267       O268   2.339       .  S
Zr267       O269   2.336       .  S
Zr267       O277   2.343       .  S
Zr267       O275   2.328       .  S
O268       Zr294   2.337   1_655  S
O268       Zr297   2.340       .  S
O269       Zr295   2.335       .  S
O269       Zr296   2.322       .  S
C270       C2341   1.479       .  S
C271       C1461   1.493       .  S
C272       C1590   1.503       .  S
C273       C1510   1.498       .  S
H274        O275   0.965       .  S
O275       Zr294   2.343   1_655  S
O275       Zr296   2.357       .  S
H276        O277   0.964       .  S
O277       Zr295   2.348       .  S
O277       Zr297   2.354       .  S
O278       Zr294   2.437       .  S
O278        C301   1.291       .  A
O279       Zr295   2.459       .  S
O279        C302   1.296       .  A
O280       Zr296   2.438   1_455  S
O280        C303   1.292       .  A
O281       Zr297   2.453   1_455  S
O281        C304   1.295       .  A
O282       Zr297   2.439       .  S
O282        C305   1.292       .  A
O283       Zr296   2.473       .  S
O283        C306   1.298       .  A
O284       Zr298   2.451       .  S
O284        C307   1.294       .  A
O285       Zr298   2.462       .  S
O285        C308   1.297       .  A
O286       Zr296   2.436   1_455  S
O286        C307   1.291       .  A
O287       Zr297   2.451   1_455  S
O287        C308   1.294       .  A
O288       Zr294   2.436       .  S
O288        C303   1.292       .  A
O289       Zr295   2.441       .  S
O289        C306   1.290       .  A
O290       Zr295   2.431       .  S
O290        C305   1.290       .  A
O291       Zr294   2.449       .  S
O291        C304   1.294       .  A
O292       Zr298   2.448       .  S
O292        C301   1.294       .  A
O293       Zr298   2.426       .  S
O293        C302   1.290   1_455  A
Zr294       O300   2.347       .  S
Zr294       O312   2.335       .  S
Zr295       O299   2.346       .  S
Zr295       O310   2.336       .  S
Zr296       O300   2.355   1_655  S
Zr296       O310   2.347       .  S
Zr297       O299   2.342       .  S
Zr297       O312   2.350   1_655  S
Zr298       O299   2.345   1_455  S
Zr298       O300   2.337       .  S
Zr298       O312   2.333       .  S
Zr298       O310   2.354   1_455  S
C301       C1890   1.487       .  S
C302       C1450   1.478   1_655  S
C303       C1561   1.464       .  S
C304       C1530   1.491       .  S
C305       C1490   1.466       .  S
C306       C1601   1.515       .  S
C307       C1621   1.500       .  S
C308       C1541   1.497       .  S
H309        O310   0.965       .  S
H311        O312   0.965       .  S
C313        C314   1.547       .  S
C313        C319   1.524       .  S
C313        C317   1.546       .  S
C313       C1401   1.549       .  S
C314        H321   1.074       .  S
C314        C315   1.372       .  D
C315        C316   1.547       .  S
C315       C1501   1.509       .  S
C316        C320   1.547       .  S
C316        C318   1.540       .  S
C316        H322   1.106       .  S
C317        H323   1.086       .  S
C317        C318   1.368       .  D
C318       C1730   1.500       .  S
C319        H324   1.087       .  S
C319        C320   1.361       .  D
C320       C1430   1.488       .  S
C325        C326   1.549       .  S
C325        C331   1.518       .  S
C325        C329   1.546       .  S
C325       C1361   1.555       .  S
C326        H333   1.077       .  S
C326        C327   1.373       .  D
C327        C328   1.553       .  S
C327       C1701   1.523       .  S
C328        C332   1.559       .  S
C328        C330   1.554       .  S
C328        H334   1.107       .  S
C329        H335   1.086       .  S
C329        C330   1.369       .  D
C330       C1521   1.507       .  S
C331        H336   1.087       .  S
C331        C332   1.361       .  D
C332       C1381   1.501       .  S
C337        C338   1.543   1_545  S
C337        C343   1.523       .  S
C337        C341   1.553       .  S
C337       C2141   1.557       .  S
C338        H345   1.080       .  S
C338        C339   1.375       .  D
C339        C340   1.552   1_565  S
C339       C1781   1.508       .  S
C340        C344   1.540       .  S
C340        C342   1.555       .  S
C340        H346   1.100       .  S
C341        H347   1.081       .  S
C341        C342   1.381       .  D
C342       C1610   1.538       .  S
C343        H348   1.087       .  S
C343        C344   1.351       .  D
C344       C1341   1.483       .  S
C349        C350   1.523       .  S
C349        C355   1.529       .  S
C349        C353   1.548   1_545  S
C349       C2430   1.537       .  S
C350        H357   1.086       .  S
C350        C351   1.359       .  D
C351        C352   1.554       .  S
C351       C1581   1.496       .  S
C352        C356   1.558       .  S
C352        C354   1.549   1_545  S
C352        H358   1.108       .  S
C353        H359   1.082       .  S
C353        C354   1.368       .  D
C354       C1810   1.502       .  S
C355        H360   1.087       .  S
C355        C356   1.367       .  D
C356       C1321   1.500       .  S
C361        C362   1.538       .  S
C361        C367   1.532       .  S
C361        C365   1.527       .  S
C361       C1281   1.539       .  S
C362        H369   1.085       .  S
C362        C363   1.363       .  D
C363        C364   1.555       .  S
C363       C1741   1.491       .  S
C364        C368   1.552       .  S
C364        C366   1.554       .  S
C364        H370   1.101       .  S
C365        H371   1.086       .  S
C365        C366   1.375       .  D
C366       C1481   1.509       .  S
C367        H372   1.081       .  S
C367        C368   1.358       .  D
C368       C1310   1.510       .  S
C373        C374   1.549       .  S
C373        C379   1.544       .  S
C373        C377   1.527       .  S
C373       C1250   1.549       .  S
C374        H381   1.080       .  S
C374        C375   1.374       .  D
C375        C376   1.550       .  S
C375       C1550   1.519       .  S
C376        C380   1.539       .  S
C376        C378   1.551       .  S
C376        H382   1.106       .  S
C377        H383   1.087       .  S
C377        C378   1.365       .  D
C378       C1681   1.492       .  S
C379        H384   1.085       .  S
C379        C380   1.364       .  D
C380       C1270   1.492       .  S
C385        C386   1.538       .  S
C385        C391   1.533       .  S
C385        C389   1.546   1_545  S
C385       C2121   1.556       .  S
C386        H393   1.085       .  S
C386        C387   1.374       .  D
C387        C388   1.552       .  S
C387       C1630   1.515       .  S
C388        C392   1.557       .  S
C388        C390   1.548   1_545  S
C388        H394   1.107       .  S
C389        H395   1.085       .  S
C389        C390   1.367       .  D
C390       C1770   1.504       .  S
C391        H396   1.084       .  S
C391        C392   1.364       .  D
C392       C1230   1.501       .  S
C397        C398   1.540   1_545  S
C397        C403   1.536       .  S
C397        C401   1.554       .  S
C397       C2401   1.560       .  S
C398        H405   1.086       .  S
C398        C399   1.361       .  D
C399        C400   1.539   1_565  S
C399       C1830   1.489       .  S
C400        C404   1.541       .  S
C400        C402   1.542       .  S
C400        H406   1.108       .  S
C401        H407   1.081       .  S
C401        C402   1.376       .  D
C402       C1570   1.499       .  S
C403        H408   1.086       .  S
C403        C404   1.367       .  D
C404       C1210   1.505       .  S
O409       Zr445   2.488       .  S
O409        C420   1.302   1_556  A
O410       Zr444   2.430       .  S
O410        C421   1.288       .  A
O411       Zr417   2.485       .  S
O411        C422   1.302       .  A
O412       Zr417   2.448       .  S
O412        C423   1.294       .  A
O413       Zr447   2.449   1_554  S
O413        C423   1.294       .  A
O414       Zr446   2.418   1_554  S
O414        C422   1.288       .  A
O415       Zr417   2.445       .  S
O415        C421   1.291       .  A
O416       Zr417   2.422       .  S
O416        C420   1.289       .  A
Zr417       O418   2.336       .  S
Zr417       O419   2.348       .  S
Zr417       O427   2.358       .  S
Zr417       O425   2.336       .  S
O418       Zr444   2.338       .  S
O418       Zr447   2.344   1_554  S
O419       Zr445   2.352   1_554  S
O419       Zr446   2.348   1_554  S
C420       C2041   1.488       .  S
C421       C1290   1.501       .  S
C422       C1061   1.487       .  S
C423       C1181   1.480       .  S
H424        O425   0.965       .  S
O425       Zr444   2.336       .  S
O425       Zr446   2.357   1_554  S
H426        O427   0.965       .  S
O427       Zr445   2.333   1_554  S
O427       Zr447   2.350   1_554  S
O428       Zr444   2.424       .  S
O428        C451   1.289   1_554  A
O429       Zr445   2.468       .  S
O429        C452   1.297       .  A
O430       Zr446   2.458   1_554  S
O430        C453   1.295       .  A
O431       Zr447   2.460   1_554  S
O431        C454   1.297       .  A
O432       Zr447   2.478       .  S
O432        C455   1.299       .  A
O433       Zr446   2.469       .  S
O433        C456   1.298       .  A
O434       Zr448   2.450       .  S
O434        C457   1.294       .  A
O435       Zr448   2.432       .  S
O435        C458   1.291       .  A
O436       Zr446   2.440       .  S
O436        C457   1.290       .  A
O437       Zr447   2.441       .  S
O437        C458   1.293       .  A
O438       Zr444   2.452       .  S
O438        C453   1.294       .  A
O439       Zr445   2.417       .  S
O439        C456   1.288       .  A
O440       Zr445   2.450       .  S
O440        C455   1.293       .  A
O441       Zr444   2.445       .  S
O441        C454   1.293       .  A
O442       Zr448   2.445       .  S
O442        C451   1.292       .  A
O443       Zr448   2.438       .  S
O443        C452   1.292       .  A
Zr444       O450   2.336   1_554  S
Zr444       O462   2.347   1_554  S
Zr445       O449   2.338       .  S
Zr445       O460   2.354       .  S
Zr446       O450   2.333       .  S
Zr446       O460   2.348       .  S
Zr447       O449   2.337       .  S
Zr447       O462   2.363       .  S
Zr448       O449   2.347       .  S
Zr448       O450   2.333       .  S
Zr448       O462   2.348       .  S
Zr448       O460   2.335       .  S
C451       C1930   1.472       .  S
C452       C1410   1.492       .  S
C453       C1041   1.502       .  S
C454       C1121   1.494       .  S
C455       C1161   1.516       .  S
C456       C1081   1.473       .  S
C457       C1110   1.500       .  S
C458       C1141   1.472       .  S
H459        O460   0.966       .  S
H461        O462   0.965       .  S
O463       Zr499   2.427       .  S
O463        C474   1.289       .  A
O464       Zr498   2.430       .  S
O464        C475   1.289       .  A
O465       Zr471   2.458       .  S
O465        C476   1.296       .  A
O466       Zr471   2.460       .  S
O466        C477   1.297       .  A
O467       Zr501   2.454       .  S
O467        C477   1.295       .  A
O468       Zr500   2.438       .  S
O468        C476   1.292       .  A
O469       Zr471   2.420       .  S
O469        C475   1.286       .  A
O470       Zr471   2.439       .  S
O470        C474   1.292   1_554  A
Zr471       O472   2.335       .  S
Zr471       O473   2.346       .  S
Zr471       O481   2.337       .  S
Zr471       O479   2.346       .  S
O472       Zr498   2.331       .  S
O472       Zr501   2.344       .  S
O473       Zr499   2.340   1_554  S
O473       Zr500   2.352       .  S
C474       C2090   1.466       .  S
C475       C1241   1.494       .  S
C476        C921   1.478       .  S
C477       C1001   1.500       .  S
H478        O479   0.965       .  S
O479       Zr498   2.338       .  S
O479       Zr500   2.340       .  S
H480        O481   0.965   1_556  S
O481       Zr499   2.346   1_554  S
O481       Zr501   2.343       .  S
O482       Zr498   2.424       .  S
O482        C505   1.288       .  A
O483       Zr499   2.428       .  S
O483        C506   1.290       .  A
O484       Zr500   2.445       .  S
O484        C507   1.293       .  A
O485       Zr501   2.448       .  S
O485        C508   1.293       .  A
O486       Zr501   2.444   1_556  S
O486        C509   1.291       .  A
O487       Zr500   2.457   1_556  S
O487        C510   1.294       .  A
O488       Zr502   2.405       .  S
O488        C511   1.284       .  A
O489       Zr502   2.403       .  S
O489        C512   1.284       .  A
O490       Zr500   2.442   1_556  S
O490        C511   1.291       .  A
O491       Zr501   2.473   1_556  S
O491        C512   1.300       .  A
O492       Zr498   2.434       .  S
O492        C507   1.291       .  A
O493       Zr499   2.465       .  S
O493        C510   1.296       .  A
O494       Zr499   2.442       .  S
O494        C509   1.291       .  A
O495       Zr498   2.438       .  S
O495        C508   1.290       .  A
O496       Zr502   2.463       .  S
O496        C505   1.296   1_556  A
O497       Zr502   2.446       .  S
O497        C506   1.293       .  A
Zr498       O504   2.339       .  S
Zr498       O516   2.344       .  S
Zr499       O503   2.344       .  S
Zr499       O514   2.338       .  S
Zr500       O504   2.342       .  S
Zr500       O514   2.328   1_554  S
Zr501       O503   2.344   1_554  S
Zr501       O516   2.326       .  S
Zr502       O503   2.338       .  S
Zr502       O504   2.336   1_556  S
Zr502       O516   2.332   1_556  S
Zr502       O514   2.336       .  S
C505       C1970   1.472       .  S
C506       C1370   1.470       .  S
C507        C901   1.478       .  S
C508       C1030   1.503       .  S
C509        C990   1.507       .  S
C510        C950   1.518       .  S
C511        C881   1.493       .  S
C512        C961   1.478       .  S
H513        O514   0.963       .  S
H515        O516   0.962       .  S
C517        C518   1.550   1_655  S
C517        C523   1.527   1_655  S
C517        C521   1.534       .  S
C517       C1661   1.554       .  S
C518        H525   1.082       .  S
C518        C519   1.376       .  D
C519        C520   1.549       .  S
C519        C941   1.501       .  S
C520        C524   1.551       .  S
C520        C522   1.562   1_455  S
C520        H526   1.105       .  S
C521        H527   1.085       .  S
C521        C522   1.376       .  D
C522       C1170   1.529       .  S
C523        H528   1.086       .  S
C523        C524   1.352       .  D
C524        C870   1.497       .  S
C529        C530   1.525       .  S
C529        C535   1.533       .  S
C529        C533   1.551   1_655  S
C529       C1470   1.538       .  S
C530        H537   1.087       .  S
C530        C531   1.358       .  D
C531        C532   1.543       .  S
C531       C1150   1.486       .  S
C532        C536   1.549       .  S
C532        C534   1.548   1_655  S
C532        H538   1.107       .  S
C533        H539   1.084       .  S
C533        C534   1.379       .  D
C534        C890   1.510       .  S
C535        H540   1.085       .  S
C535        C536   1.358       .  D
C536        C850   1.493       .  S
C541        C542   1.531       .  S
C541        C547   1.540       .  S
C541        C545   1.545       .  S
C541       C2550   1.553       .  S
C542        H549   1.086       .  S
C542        C543   1.369       .  D
C543        C544   1.550       .  S
C543        C981   1.501       .  S
C544        C548   1.545       .  S
C544        C546   1.547       .  S
C544        H550   1.109       .  S
C545        H551   1.080       .  S
C545        C546   1.365       .  D
C546       C1090   1.505       .  S
C547        H552   1.085       .  S
C547        C548   1.367       .  D
C548        C830   1.488       .  S
C553        C554   1.546       .  S
C553        C559   1.540       .  S
C553        C557   1.532       .  S
C553       C2241   1.556       .  S
C554        H561   1.078       .  S
C554        C555   1.365       .  D
C555        C556   1.545       .  S
C555       C1070   1.505       .  S
C556        C560   1.554       .  S
C556        C558   1.560       .  S
C556        H562   1.106       .  S
C557        H563   1.085       .  S
C557        C558   1.368       .  D
C558       C1010   1.522       .  S
C559        H564   1.085       .  S
C559        C560   1.367       .  D
C560        C801   1.497       .  S
C565        C566   1.515   1_655  S
C565        C571   1.537       .  S
C565        C569   1.554       .  S
C565       C1441   1.544   1_655  S
C566        H573   1.087       .  S
C566        C567   1.353       .  D
C567        C568   1.566   1_455  S
C567        C910   1.484       .  S
C568        C572   1.548       .  S
C568        C570   1.555       .  S
C568        H574   1.101       .  S
C569        H575   1.072       .  S
C569        C570   1.383       .  D
C570       C1130   1.535       .  S
C571        H576   1.087       .  S
C571        C572   1.360       .  D
C572        C790   1.507       .  S
C577        C578   1.549   1_455  S
C577        C583   1.542   1_455  S
C577        C581   1.527       .  S
C577       C1650   1.548       .  S
C578        H585   1.084       .  S
C578        C579   1.379       .  D
C579        C580   1.551   1_655  S
C579       C1190   1.516       .  S
C580        C584   1.545   1_455  S
C580        C582   1.558       .  S
C580        H586   1.102       .  S
C581        H587   1.087       .  S
C581        C582   1.358       .  D
C582        C930   1.495       .  S
C583        H588   1.084       .  S
C583        C584   1.362       .  D
C584        C770   1.505       .  S
C589        C590   1.535       .  S
C589        C595   1.542       .  S
C589        C593   1.546       .  S
C589       C2530   1.557       .  S
C590        H597   1.086       .  S
C590        C591   1.369       .  D
C591        C592   1.550       .  S
C591       C1101   1.503       .  S
C592        C596   1.548       .  S
C592        C594   1.544       .  S
C592        H598   1.109       .  S
C593        H599   1.082       .  S
C593        C594   1.369       .  D
C594        C970   1.498       .  S
C595        H600   1.086       .  S
C595        C596   1.367       .  D
C596        C741   1.499       .  S
C601        C602   1.553       .  S
C601        C607   1.518       .  S
C601        C605   1.548       .  S
C601       C2230   1.554       .  S
C602        H609   1.083       .  S
C602        C603   1.375       .  D
C603        C604   1.538       .  S
C603       C1021   1.515       .  S
C604        C608   1.560       .  S
C604        C606   1.550       .  S
C604        H610   1.096       .  S
C605        H611   1.080       .  S
C605        C606   1.375       .  D
C606       C1050   1.526       .  S
C607        H612   1.087       .  S
C607        C608   1.356       .  D
C608        C721   1.485       .  S
O613       Zr649   2.445       .  S
O613        C624   1.293       .  A
O614       Zr648   2.469       .  S
O614        C625   1.297       .  A
O615       Zr621   2.463       .  S
O615        C626   1.295       .  A
O616       Zr621   2.512       .  S
O616        C627   1.304       .  A
O617       Zr651   2.378       .  S
O617        C627   1.278       .  A
O618       Zr650   2.426       .  S
O618        C626   1.289       .  A
O619       Zr621   2.431       .  S
O619        C625   1.292       .  A
O620       Zr621   2.436       .  S
O620        C624   1.292       .  A
Zr621       O622   2.335       .  S
Zr621       O623   2.358       .  S
Zr621       O631   2.337       .  S
Zr621       O629   2.359       .  S
O622       Zr648   2.347       .  S
O622       Zr651   2.323       .  S
O623       Zr649   2.341       .  S
O623       Zr650   2.342       .  S
C624       C2390   1.471       .  S
C625        C730   1.495       .  S
C626       C1910   1.501       .  S
C627       C1301   1.515       .  S
H628        O629   0.966       .  S
O629       Zr648   2.353       .  S
O629       Zr650   2.342       .  S
H630        O631   0.967       .  S
O631       Zr649   2.354       .  S
O631       Zr651   2.341       .  S
O632       Zr648   2.503       .  S
O632        C655   1.303       .  A
O633       Zr649   2.451       .  S
O633        C656   1.293       .  A
O634       Zr650   2.461       .  S
O634        C657   1.296       .  A
O635       Zr651   2.482       .  S
O635        C658   1.298       .  A
O636       Zr651   2.449       .  S
O636        C659   1.294       .  A
O637       Zr650   2.459       .  S
O637        C660   1.294       .  A
O638       Zr652   2.486       .  S
O638        C661   1.301       .  A
O639       Zr652   2.486       .  S
O639        C662   1.301       .  A
O640       Zr650   2.419       .  S
O640        C661   1.289       .  A
O641       Zr651   2.394       .  S
O641        C662   1.283       .  A
O642       Zr648   2.419       .  S
O642        C657   1.289       .  A
O643       Zr649   2.445       .  S
O643        C660   1.294       .  A
O644       Zr649   2.424       .  S
O644        C659   1.289       .  A
O645       Zr648   2.411       .  S
O645        C658   1.286       .  A
O646       Zr652   2.384       .  S
O646        C655   1.277       .  A
O647       Zr652   2.431       .  S
O647        C656   1.292       .  A
Zr648       O654   2.338       .  S
Zr648       O666   2.340       .  S
Zr649       O653   2.333       .  S
Zr649       O664   2.341       .  S
Zr650       O654   2.344       .  S
Zr650       O664   2.343       .  S
Zr651       O653   2.334       .  S
Zr651       O666   2.331       .  S
Zr652       O653   2.328       .  S
Zr652       O654   2.345       .  S
Zr652       O666   2.350       .  S
Zr652       O664   2.327       .  S
C655       C1870   1.508       .  S
C656        C821   1.491       .  S
C657       C1261   1.477       .  S
C658        C810   1.481       .  S
C659       C1421   1.474       .  S
C660        C750   1.481       .  S
C661       C1390   1.495       .  S
C662       C2030   1.478       .  S
H663        O664   0.965       .  S
H665        O666   0.965       .  S
O667       Zr703   2.493       .  S
O667        C678   1.300       .  A
O668       Zr702   2.453   1_455  S
O668        C679   1.292       .  A
O669       Zr675   2.482       .  S
O669        C680   1.300       .  A
O670       Zr675   2.470   1_545  S
O670        C681   1.298       .  A
O671       Zr705   2.404   1_556  S
O671        C681   1.286       .  A
O672       Zr704   2.425       .  S
O672        C680   1.290   1_655  A
O673       Zr675   2.417   1_545  S
O673        C679   1.287       .  A
O674       Zr675   2.377       .  S
O674        C678   1.274   1_556  A
Zr675       O676   2.344   1_565  S
Zr675       O677   2.337       .  S
Zr675       O685   2.345   1_566  S
Zr675       O683   2.325   1_465  S
O676       Zr702   2.339   1_455  S
O676       Zr705   2.358   1_556  S
O677       Zr703   2.340   1_556  S
O677       Zr704   2.348   1_455  S
C678       C2101   1.506       .  S
C679       C1201   1.469       .  S
C680        C861   1.498       .  S
C681       C1990   1.470       .  S
H682        O683   0.964   1_565  S
O683       Zr702   2.333       .  S
O683       Zr704   2.333   1_545  S
H684        O685   0.966       .  S
O685       Zr703   2.332   1_545  S
O685       Zr705   2.343       .  S
O686       Zr702   2.441       .  S
O686        C709   1.290       .  A
O687       Zr703   2.459   1_655  S
O687        C710   1.295       .  A
O688       Zr704   2.487       .  S
O688        C711   1.301       .  A
O689       Zr705   2.477   1_556  S
O689        C712   1.298       .  A
O690       Zr705   2.498       .  S
O690        C713   1.303       .  A
O691       Zr704   2.452       .  S
O691        C714   1.294   1_556  A
O692       Zr706   2.431   1_565  S
O692        C715   1.289       .  A
O693       Zr706   2.469       .  S
O693        C716   1.297       .  A
O694       Zr704   2.431       .  S
O694        C715   1.291   1_556  A
O695       Zr705   2.436   1_655  S
O695        C716   1.292       .  A
O696       Zr702   2.398       .  S
O696        C711   1.281   1_545  A
O697       Zr703   2.428   1_655  S
O697        C714   1.290       .  A
O698       Zr703   2.415   1_545  S
O698        C713   1.288       .  A
O699       Zr702   2.397       .  S
O699        C712   1.283   1_655  A
O700       Zr706   2.454   1_556  S
O700        C709   1.295       .  A
O701       Zr706   2.421       .  S
O701        C710   1.290   1_545  A
Zr702       O708   2.332       .  S
Zr702       O720   2.334       .  S
Zr703       O707   2.353   1_465  S
Zr703       O718   2.346   1_455  S
Zr704       O708   2.338   1_565  S
Zr704       O718   2.349   1_556  S
Zr705       O707   2.333   1_455  S
Zr705       O720   2.343   1_454  S
Zr706       O707   2.343       .  S
Zr706       O708   2.339   1_554  S
Zr706       O720   2.324   1_554  S
Zr706       O718   2.350   1_545  S
C709       C1950   1.483       .  S
C710       C1350   1.484       .  S
C711       C1330   1.497       .  S
C712        C841   1.501       .  S
C713       C1221   1.497       .  S
C714        C761   1.473       .  S
C715       C2070   1.489       .  S
C716        C781   1.482       .  S
H717        O718   0.965       .  S
H719        O720   0.964       .  S
C721        C722   1.415       .  A
C721        C726   1.410       .  A
C722        C723   1.406       .  A
C722       Br734   1.932       .  S
C723        C724   1.406       .  A
C723       Br738   1.931       .  S
C724        C727   1.485       .  S
C724        C725   1.411       .  A
C725        C726   1.409       .  A
C725       Br733   1.930       .  S
C726       Br737   1.931       .  S
C727        C728   1.408       .  A
C727        C732   1.405       .  A
C728        C729   1.414       .  A
C728       Br739   1.928       .  S
C729        C730   1.418       .  A
C729       Br735   1.926       .  S
C730        C731   1.417       .  A
C731        C732   1.402       .  A
C731       Br740   1.928       .  S
C732       Br736   1.935       .  S
C741        C742   1.415       .  A
C741        C746   1.414       .  A
C742        C743   1.406       .  A
C742       Br754   1.923       .  S
C743        C744   1.407       .  A
C743       Br758   1.933       .  S
C744        C747   1.486       .  S
C744        C745   1.408       .  A
C745        C746   1.409       .  A
C745       Br753   1.933       .  S
C746       Br757   1.917       .  S
C747        C748   1.407       .  A
C747        C752   1.413       .  A
C748        C749   1.401       .  A
C748       Br759   1.931       .  S
C749        C750   1.409       .  A
C749       Br755   1.927       .  S
C750        C751   1.410       .  A
C751        C752   1.413       .  A
C751       Br760   1.923       .  S
C752       Br756   1.928       .  S
C761        C762   1.408       .  A
C761        C766   1.405       .  A
C762        C763   1.407       .  A
C762       Br774   1.927       .  S
C763        C764   1.409       .  A
C763       Br778   1.928       .  S
C764        C767   1.481       .  S
C764        C765   1.407       .  A
C765        C766   1.404       .  A
C765       Br773   1.930   1_655  S
C766       Br777   1.913   1_654  S
C767        C768   1.404   1_655  A
C767        C772   1.403       .  A
C768        C769   1.405       .  A
C768       Br779   1.934       .  S
C769        C770   1.417   1_455  A
C769       Br775   1.919       .  S
C770        C771   1.420       .  A
C771        C772   1.411       .  A
C771       Br780   1.915       .  S
C772       Br776   1.933       .  S
C781        C782   1.404       .  A
C781        C786   1.407       .  A
C782        C783   1.413       .  A
C782       Br794   1.926       .  S
C783        C784   1.416       .  A
C783       Br798   1.927       .  S
C784        C787   1.497       .  S
C784        C785   1.411       .  A
C785        C786   1.408       .  A
C785       Br793   1.929       .  S
C786       Br797   1.921       .  S
C787        C788   1.407       .  A
C787        C792   1.412       .  A
C788        C789   1.410       .  A
C788       Br799   1.931       .  S
C789        C790   1.417       .  A
C789       Br795   1.922       .  S
C790        C791   1.413   1_655  A
C791        C792   1.415   1_455  A
C791       Br800   1.917       .  S
C792       Br796   1.929   1_655  S
C801        C802   1.413       .  A
C801        C806   1.413       .  A
C802        C803   1.409       .  A
C802       Br814   1.928       .  S
C803        C804   1.410       .  A
C803       Br818   1.931       .  S
C804        C807   1.492       .  S
C804        C805   1.408       .  A
C805        C806   1.412       .  A
C805       Br813   1.931       .  S
C806       Br817   1.917       .  S
C807        C808   1.409       .  A
C807        C812   1.410       .  A
C808        C809   1.407       .  A
C808       Br819   1.931       .  S
C809        C810   1.408       .  A
C809       Br815   1.916       .  S
C810        C811   1.412       .  A
C811        C812   1.412       .  A
C811       Br820   1.930       .  S
C812       Br816   1.928       .  S
C821        C822   1.418       .  A
C821        C826   1.417       .  A
C822        C823   1.410       .  A
C822       Br834   1.930       .  S
C823        C824   1.407       .  A
C823       Br838   1.928       .  S
C824        C827   1.478       .  S
C824        C825   1.401       .  A
C825        C826   1.400       .  A
C825       Br833   1.934       .  S
C826       Br837   1.920       .  S
C827        C828   1.409       .  A
C827        C832   1.403       .  A
C828        C829   1.405       .  A
C828       Br839   1.933       .  S
C829        C830   1.414       .  A
C829       Br835   1.929       .  S
C830        C831   1.411       .  A
C831        C832   1.404       .  A
C831       Br840   1.911       .  S
C832       Br836   1.931       .  S
C841        C842   1.422       .  A
C841        C846   1.428   1_455  A
C842        C843   1.413       .  A
C842       Br854   1.931   1_556  S
C843        C844   1.407       .  A
C843       Br858   1.929       .  S
C844        C847   1.487       .  S
C844        C845   1.405   1_455  A
C845        C846   1.404       .  A
C845       Br853   1.939       .  S
C846       Br857   1.941       .  S
C847        C848   1.410   1_455  A
C847        C852   1.406       .  A
C848        C849   1.412       .  A
C848       Br859   1.928       .  S
C849        C850   1.411       .  A
C849       Br855   1.923       .  S
C850        C851   1.419   1_655  A
C851        C852   1.404       .  A
C851       Br860   1.935       .  S
C852       Br856   1.934       .  S
C861        C862   1.419       .  A
C861        C866   1.420   1_455  A
C862        C863   1.414       .  A
C862       Br874   1.927       .  S
C863        C864   1.407       .  A
C863       Br878   1.930       .  S
C864        C867   1.495       .  S
C864        C865   1.409       .  A
C865        C866   1.410   1_455  A
C865       Br873   1.932   1_455  S
C866       Br877   1.933       .  S
C867        C868   1.407       .  A
C867        C872   1.412       .  A
C868        C869   1.409       .  A
C868       Br879   1.931       .  S
C869        C870   1.423       .  A
C869       Br875   1.938       .  S
C870        C871   1.410   1_455  A
C871        C872   1.411   1_655  A
C871       Br880   1.928       .  S
C872       Br876   1.927   1_455  S
C881        C882   1.425       .  A
C881        C886   1.428       .  A
C882        C883   1.403       .  A
C882       Br894   1.934       .  S
C883        C884   1.402       .  A
C883       Br898   1.936       .  S
C884        C887   1.471       .  S
C884        C885   1.401       .  A
C885        C886   1.403       .  A
C885       Br893   1.937       .  S
C886       Br897   1.939       .  S
C887        C888   1.399       .  A
C887        C892   1.398       .  A
C888        C889   1.404       .  A
C888       Br899   1.940       .  S
C889        C890   1.429       .  A
C889       Br895   1.923       .  S
C890        C891   1.427       .  A
C891        C892   1.404       .  A
C891       Br900   1.921       .  S
C892       Br896   1.937       .  S
C901        C902   1.413       .  A
C901        C906   1.413       .  A
C902        C903   1.403       .  A
C902       Br914   1.921       .  S
C903        C904   1.404       .  A
C903       Br918   1.933       .  S
C904        C907   1.477       .  S
C904        C905   1.408       .  A
C905        C906   1.407       .  A
C905       Br913   1.931       .  S
C906       Br917   1.930       .  S
C907        C908   1.404       .  A
C907        C912   1.407       .  A
C908        C909   1.404       .  A
C908       Br919   1.931       .  S
C909        C910   1.416       .  A
C909       Br915   1.932       .  S
C910        C911   1.411       .  A
C911        C912   1.406       .  A
C911       Br920   1.927       .  S
C912       Br916   1.930       .  S
C921        C922   1.409       .  A
C921        C926   1.407       .  A
C922        C923   1.410       .  A
C922       Br934   1.926       .  S
C923        C924   1.413       .  A
C923       Br938   1.929       .  S
C924        C927   1.491       .  S
C924        C925   1.412       .  A
C925        C926   1.405       .  A
C925       Br933   1.932       .  S
C926       Br937   1.922       .  S
C927        C928   1.409       .  A
C927        C932   1.408       .  A
C928        C929   1.410       .  A
C928       Br939   1.931       .  S
C929        C930   1.418       .  A
C929       Br935   1.930       .  S
C930        C931   1.410       .  A
C931        C932   1.408       .  A
C931       Br940   1.916       .  S
C932       Br936   1.931       .  S
C941        C942   1.416       .  A
C941        C946   1.415       .  A
C942        C943   1.411       .  A
C942       Br954   1.930       .  S
C943        C944   1.408       .  A
C943       Br958   1.928       .  S
C944        C947   1.497       .  S
C944        C945   1.409       .  A
C945        C946   1.412       .  A
C945       Br953   1.931       .  S
C946       Br957   1.923       .  S
C947        C948   1.406       .  A
C947        C952   1.405       .  A
C948        C949   1.414       .  A
C948       Br959   1.935       .  S
C949        C950   1.430       .  A
C949       Br955   1.934       .  S
C950        C951   1.428       .  A
C951        C952   1.415       .  A
C951       Br960   1.935       .  S
C952       Br956   1.932       .  S
C961        C962   1.413       .  A
C961        C966   1.408       .  A
C962        C963   1.404       .  A
C962       Br974   1.925       .  S
C963        C964   1.409       .  A
C963       Br978   1.932       .  S
C964        C967   1.483       .  S
C964        C965   1.410       .  A
C965        C966   1.405       .  A
C965       Br973   1.931       .  S
C966       Br977   1.922       .  S
C967        C968   1.404       .  A
C967        C972   1.409       .  A
C968        C969   1.404       .  A
C968       Br979   1.936       .  S
C969        C970   1.416       .  A
C969       Br975   1.915       .  S
C970        C971   1.419       .  A
C971        C972   1.410       .  A
C971       Br980   1.935       .  S
C972       Br976   1.931       .  S
C981        C982   1.420       .  A
C981        C986   1.419       .  A
C982        C983   1.405       .  A
C982       Br994   1.933       .  S
C983        C984   1.404       .  A
C983       Br998   1.934       .  S
C984        C987   1.484       .  S
C984        C985   1.407       .  A
C985        C986   1.411       .  A
C985       Br993   1.934       .  S
C986       Br997   1.924       .  S
C987        C988   1.404       .  A
C987        C992   1.403       .  A
C988        C989   1.409       .  A
C988       Br999   1.937       .  S
C989        C990   1.430       .  A
C989       Br995   1.938       .  S
C990        C991   1.428       .  A
C991        C992   1.408       .  A
C991      Br1000   1.939       .  S
C992       Br996   1.933       .  S
C1001      C1002   1.415       .  A
C1001      C1006   1.416       .  A
C1002      C1003   1.414       .  A
C1002     Br1014   1.928       .  S
C1003      C1004   1.415       .  A
C1003     Br1018   1.933       .  S
C1004      C1007   1.503       .  S
C1004      C1005   1.411       .  A
C1005      C1006   1.411       .  A
C1005     Br1013   1.932       .  S
C1006     Br1017   1.924       .  S
C1007      C1008   1.412       .  A
C1007      C1012   1.406       .  A
C1008      C1009   1.418       .  A
C1008     Br1019   1.933       .  S
C1009      C1010   1.424       .  A
C1009     Br1015   1.927       .  S
C1010      C1011   1.429       .  A
C1011      C1012   1.408       .  A
C1011     Br1020   1.936       .  S
C1012     Br1016   1.936       .  S
C1021      C1022   1.430       .  A
C1021      C1026   1.426       .  A
C1022      C1023   1.407       .  A
C1022     Br1034   1.926       .  S
C1023      C1024   1.400       .  A
C1023     Br1038   1.941       .  S
C1024      C1027   1.485       .  S
C1024      C1025   1.404       .  A
C1025      C1026   1.412       .  A
C1025     Br1033   1.933       .  S
C1026     Br1037   1.932       .  S
C1027      C1028   1.403       .  A
C1027      C1032   1.406       .  A
C1028      C1029   1.410       .  A
C1028     Br1039   1.934       .  S
C1029      C1030   1.429       .  A
C1029     Br1035   1.938       .  S
C1030      C1031   1.426       .  A
C1031      C1032   1.408       .  A
C1031     Br1040   1.937       .  S
C1032     Br1036   1.937       .  S
C1041      C1042   1.420       .  A
C1041      C1046   1.421       .  A
C1042      C1043   1.414       .  A
C1042     Br1054   1.934       .  S
C1043      C1044   1.412       .  A
C1043     Br1058   1.932       .  S
C1044      C1047   1.501       .  S
C1044      C1045   1.410       .  A
C1045      C1046   1.412       .  A
C1045     Br1053   1.933       .  S
C1046     Br1057   1.935       .  S
C1047      C1048   1.408       .  A
C1047      C1052   1.405       .  A
C1048      C1049   1.417       .  A
C1048     Br1059   1.936       .  S
C1049      C1050   1.430       .  A
C1049     Br1055   1.927       .  S
C1050      C1051   1.428       .  A
C1051      C1052   1.411       .  A
C1051     Br1060   1.934       .  S
C1052     Br1056   1.933       .  S
C1061      C1062   1.415       .  A
C1061      C1066   1.413       .  A
C1062      C1063   1.405       .  A
C1062     Br1074   1.933       .  S
C1063      C1064   1.408       .  A
C1063     Br1078   1.933       .  S
C1064      C1067   1.489       .  S
C1064      C1065   1.411       .  A
C1065      C1066   1.412       .  A
C1065     Br1073   1.930       .  S
C1066     Br1077   1.928       .  S
C1067      C1068   1.408       .  A
C1067      C1072   1.405       .  A
C1068      C1069   1.413       .  A
C1068     Br1079   1.932       .  S
C1069      C1070   1.425       .  A
C1069     Br1075   1.935       .  S
C1070      C1071   1.416       .  A
C1071      C1072   1.405       .  A
C1071     Br1080   1.919       .  S
C1072     Br1076   1.935       .  S
C1081      C1082   1.409       .  A
C1081      C1086   1.409       .  A
C1082      C1083   1.405       .  A
C1082     Br1094   1.923       .  S
C1083      C1084   1.408       .  A
C1083     Br1098   1.931       .  S
C1084      C1087   1.483       .  S
C1084      C1085   1.409       .  A
C1085      C1086   1.407       .  A
C1085     Br1093   1.928       .  S
C1086     Br1097   1.925       .  S
C1087      C1088   1.405       .  A
C1087      C1092   1.403       .  A
C1088      C1089   1.411       .  A
C1088     Br1099   1.931       .  S
C1089      C1090   1.427       .  A
C1089     Br1095   1.938       .  S
C1090      C1091   1.419       .  A
C1091      C1092   1.406       .  A
C1091     Br1100   1.921       .  S
C1092     Br1096   1.935       .  S
C1101      C1102   1.422       .  A
C1101      C1106   1.418       .  A
C1102      C1103   1.409       .  A
C1102     Br1114   1.936       .  S
C1103      C1104   1.407       .  A
C1103     Br1118   1.934       .  S
C1104      C1107   1.489       .  S
C1104      C1105   1.406       .  A
C1105      C1106   1.411       .  A
C1105     Br1113   1.932       .  S
C1106     Br1117   1.922       .  S
C1107      C1108   1.408       .  A
C1107      C1112   1.405       .  A
C1108      C1109   1.412       .  A
C1108     Br1119   1.933       .  S
C1109      C1110   1.425       .  A
C1109     Br1115   1.936       .  S
C1110      C1111   1.421       .  A
C1111      C1112   1.407       .  A
C1111     Br1120   1.931       .  S
C1112     Br1116   1.933       .  S
C1121      C1122   1.416       .  A
C1121      C1126   1.415       .  A
C1122      C1123   1.411       .  A
C1122     Br1134   1.931       .  S
C1123      C1124   1.411       .  A
C1123     Br1138   1.931       .  S
C1124      C1127   1.497       .  S
C1124      C1125   1.409       .  A
C1125      C1126   1.412       .  A
C1125     Br1133   1.931       .  S
C1126     Br1137   1.926       .  S
C1127      C1128   1.402       .  A
C1127      C1132   1.403       .  A
C1128      C1129   1.412       .  A
C1128     Br1139   1.935       .  S
C1129      C1130   1.434       .  A
C1129     Br1135   1.935       .  S
C1130      C1131   1.438       .  A
C1131      C1132   1.417       .  A
C1131     Br1140   1.931       .  S
C1132     Br1136   1.939       .  S
C1141      C1142   1.411       .  A
C1141      C1146   1.410       .  A
C1142      C1143   1.407       .  A
C1142     Br1154   1.928       .  S
C1143      C1144   1.409       .  A
C1143     Br1158   1.929       .  S
C1144      C1147   1.476       .  S
C1144      C1145   1.405       .  A
C1145      C1146   1.401       .  A
C1145     Br1153   1.933       .  S
C1146     Br1157   1.925       .  S
C1147      C1148   1.406       .  A
C1147      C1152   1.405       .  A
C1148      C1149   1.406       .  A
C1148     Br1159   1.930       .  S
C1149      C1150   1.415       .  A
C1149     Br1155   1.931       .  S
C1150      C1151   1.414       .  A
C1151      C1152   1.404       .  A
C1151     Br1160   1.921       .  S
C1152     Br1156   1.935       .  S
C1161      C1162   1.420       .  A
C1161      C1166   1.420       .  A
C1162      C1163   1.411       .  A
C1162     Br1174   1.927       .  S
C1163      C1164   1.411       .  A
C1163     Br1178   1.933       .  S
C1164      C1167   1.515       .  S
C1164      C1165   1.417       .  A
C1165      C1166   1.423       .  A
C1165     Br1173   1.930       .  S
C1166     Br1177   1.931       .  S
C1167      C1168   1.412       .  A
C1167      C1172   1.413       .  A
C1168      C1169   1.412       .  A
C1168     Br1179   1.932       .  S
C1169      C1170   1.422       .  A
C1169     Br1175   1.932       .  S
C1170      C1171   1.428       .  A
C1171      C1172   1.422       .  A
C1171     Br1180   1.924   1_655  S
C1172     Br1176   1.933       .  S
C1181      C1182   1.411       .  A
C1181      C1186   1.410       .  A
C1182      C1183   1.406       .  A
C1182     Br1194   1.925       .  S
C1183      C1184   1.412       .  A
C1183     Br1198   1.935       .  S
C1184      C1187   1.490       .  S
C1184      C1185   1.410       .  A
C1185      C1186   1.409       .  A
C1185     Br1193   1.929       .  S
C1186     Br1197   1.927       .  S
C1187      C1188   1.401       .  A
C1187      C1192   1.408       .  A
C1188      C1189   1.404       .  A
C1188     Br1199   1.935       .  S
C1189      C1190   1.427       .  A
C1189     Br1195   1.929       .  S
C1190      C1191   1.429       .  A
C1191      C1192   1.414       .  A
C1191     Br1200   1.938       .  S
C1192     Br1196   1.934       .  S
C1201      C1202   1.406       .  A
C1201      C1206   1.412       .  A
C1202      C1203   1.406       .  A
C1202     Br1214   1.925       .  S
C1203      C1204   1.409       .  A
C1203     Br1218   1.929       .  S
C1204      C1207   1.476       .  S
C1204      C1205   1.404       .  A
C1205      C1206   1.402       .  A
C1205     Br1213   1.931   1_545  S
C1206     Br1217   1.925   1_445  S
C1207      C1208   1.400       .  A
C1207      C1212   1.403       .  A
C1208      C1209   1.409       .  A
C1208     Br1219   1.933       .  S
C1209      C1210   1.425       .  A
C1209     Br1215   1.920       .  S
C1210      C1211   1.422   1_545  A
C1211      C1212   1.402   1_565  A
C1211     Br1220   1.927       .  S
C1212     Br1216   1.938   1_545  S
C1221      C1222   1.416       .  A
C1221      C1226   1.409       .  A
C1222      C1223   1.413       .  A
C1222     Br1234   1.926   1_545  S
C1223      C1224   1.410       .  A
C1223     Br1238   1.930   1_545  S
C1224      C1227   1.498       .  S
C1224      C1225   1.412       .  A
C1225      C1226   1.413       .  A
C1225     Br1233   1.929       .  S
C1226     Br1237   1.915       .  S
C1227      C1228   1.416       .  A
C1227      C1232   1.407       .  A
C1228      C1229   1.418       .  A
C1228     Br1239   1.925   1_545  S
C1229      C1230   1.409       .  A
C1229     Br1235   1.922   1_545  S
C1230      C1231   1.414       .  A
C1231      C1232   1.404       .  A
C1231     Br1240   1.926       .  S
C1232     Br1236   1.930       .  S
C1241      C1242   1.424       .  A
C1241      C1246   1.426       .  A
C1242      C1243   1.407       .  A
C1242     Br1254   1.937       .  S
C1243      C1244   1.403       .  A
C1243     Br1258   1.931       .  S
C1244      C1247   1.477       .  S
C1244      C1245   1.403       .  A
C1245      C1246   1.401       .  A
C1245     Br1253   1.935       .  S
C1246     Br1257   1.941       .  S
C1247      C1248   1.403       .  A
C1247      C1252   1.402       .  A
C1248      C1249   1.409       .  A
C1248     Br1259   1.933       .  S
C1249      C1250   1.425       .  A
C1249     Br1255   1.926       .  S
C1250      C1251   1.423       .  A
C1251      C1252   1.403       .  A
C1251     Br1260   1.923       .  S
C1252     Br1256   1.936       .  S
C1261      C1262   1.411       .  A
C1261      C1266   1.409       .  A
C1262      C1263   1.405       .  A
C1262     Br1274   1.928       .  S
C1263      C1264   1.408       .  A
C1263     Br1278   1.932       .  S
C1264      C1267   1.478       .  S
C1264      C1265   1.405       .  A
C1265      C1266   1.406       .  A
C1265     Br1273   1.930       .  S
C1266     Br1277   1.914       .  S
C1267      C1268   1.404       .  A
C1267      C1272   1.404       .  A
C1268      C1269   1.404       .  A
C1268     Br1279   1.934       .  S
C1269      C1270   1.416       .  A
C1269     Br1275   1.923       .  S
C1270      C1271   1.416       .  A
C1271      C1272   1.408       .  A
C1271     Br1280   1.921       .  S
C1272     Br1276   1.931       .  S
C1281      C1282   1.421       .  A
C1281      C1286   1.418       .  A
C1282      C1283   1.399       .  A
C1282     Br1294   1.936       .  S
C1283      C1284   1.402       .  A
C1283     Br1298   1.932       .  S
C1284      C1287   1.475       .  S
C1284      C1285   1.407       .  A
C1285      C1286   1.409       .  A
C1285     Br1293   1.929       .  S
C1286     Br1297   1.930       .  S
C1287      C1288   1.399       .  A
C1287      C1292   1.402       .  A
C1288      C1289   1.406       .  A
C1288     Br1299   1.938       .  S
C1289      C1290   1.430       .  A
C1289     Br1295   1.934       .  S
C1290      C1291   1.427       .  A
C1291      C1292   1.408       .  A
C1291     Br1300   1.936       .  S
C1292     Br1296   1.934       .  S
C1301      C1302   1.432       .  A
C1301      C1306   1.421       .  A
C1302      C1303   1.401       .  A
C1302     Br1314   1.940       .  S
C1303      C1304   1.402       .  A
C1303     Br1318   1.938       .  S
C1304      C1307   1.498       .  S
C1304      C1305   1.414       .  A
C1305      C1306   1.422       .  A
C1305     Br1313   1.928       .  S
C1306     Br1317   1.927       .  S
C1307      C1308   1.409       .  A
C1307      C1312   1.410       .  A
C1308      C1309   1.408       .  A
C1308     Br1319   1.936       .  S
C1309      C1310   1.423       .  A
C1309     Br1315   1.937       .  S
C1310      C1311   1.420       .  A
C1311      C1312   1.416       .  A
C1311     Br1320   1.925       .  S
C1312     Br1316   1.932       .  S
C1321      C1322   1.416   1_545  A
C1321      C1326   1.415       .  A
C1322      C1323   1.414       .  A
C1322     Br1334   1.922       .  S
C1323      C1324   1.409       .  A
C1323     Br1338   1.929       .  S
C1324      C1327   1.479       .  S
C1324      C1325   1.402   1_565  A
C1325      C1326   1.397       .  A
C1325     Br1333   1.937       .  S
C1326     Br1337   1.918       .  S
C1327      C1328   1.408       .  A
C1327      C1332   1.400   1_565  A
C1328      C1329   1.414       .  A
C1328     Br1339   1.927       .  S
C1329      C1330   1.418       .  A
C1329     Br1335   1.931       .  S
C1330      C1331   1.430   1_565  A
C1331      C1332   1.399       .  A
C1331     Br1340   1.935       .  S
C1332     Br1336   1.945       .  S
C1341      C1342   1.415   1_545  A
C1341      C1346   1.408       .  A
C1342      C1343   1.405       .  A
C1342     Br1354   1.933       .  S
C1343      C1344   1.407   1_565  A
C1343     Br1358   1.932       .  S
C1344      C1347   1.484   1_545  S
C1344      C1345   1.411       .  A
C1345      C1346   1.410       .  A
C1345     Br1353   1.929       .  S
C1346     Br1357   1.928       .  S
C1347      C1348   1.409       .  A
C1347      C1352   1.407       .  A
C1348      C1349   1.412       .  A
C1348     Br1359   1.929       .  S
C1349      C1350   1.414       .  A
C1349     Br1355   1.924   1_655  S
C1350      C1351   1.412       .  A
C1351      C1352   1.401       .  A
C1351     Br1360   1.928       .  S
C1352     Br1356   1.933       .  S
C1361      C1362   1.429       .  A
C1361      C1366   1.432       .  A
C1362      C1363   1.409       .  A
C1362     Br1374   1.930       .  S
C1363      C1364   1.401       .  A
C1363     Br1378   1.934       .  S
C1364      C1367   1.483       .  S
C1364      C1365   1.401       .  A
C1365      C1366   1.409       .  A
C1365     Br1373   1.937       .  S
C1366     Br1377   1.933       .  S
C1367      C1368   1.406       .  A
C1367      C1372   1.412       .  A
C1368      C1369   1.404       .  A
C1368     Br1379   1.929       .  S
C1369      C1370   1.410       .  A
C1369     Br1375   1.929       .  S
C1370      C1371   1.408       .  A
C1371      C1372   1.407       .  A
C1371     Br1380   1.926       .  S
C1372     Br1376   1.930       .  S
C1381      C1382   1.420       .  A
C1381      C1386   1.411       .  A
C1382      C1383   1.402       .  A
C1382     Br1394   1.929       .  S
C1383      C1384   1.405       .  A
C1383     Br1398   1.936       .  S
C1384      C1387   1.492       .  S
C1384      C1385   1.415       .  A
C1385      C1386   1.415       .  A
C1385     Br1393   1.927       .  S
C1386     Br1397   1.925       .  S
C1387      C1388   1.411       .  A
C1387      C1392   1.409       .  A
C1388      C1389   1.412       .  A
C1388     Br1399   1.933       .  S
C1389      C1390   1.416       .  A
C1389     Br1395   1.927       .  S
C1390      C1391   1.418       .  A
C1391      C1392   1.410       .  A
C1391     Br1400   1.928       .  S
C1392     Br1396   1.934       .  S
C1401      C1402   1.424       .  A
C1401      C1406   1.419       .  A
C1402      C1403   1.408       .  A
C1402     Br1414   1.927       .  S
C1403      C1404   1.405       .  A
C1403     Br1418   1.933       .  S
C1404      C1407   1.487       .  S
C1404      C1405   1.408       .  A
C1405      C1406   1.407       .  A
C1405     Br1413   1.931       .  S
C1406     Br1417   1.932       .  S
C1407      C1408   1.406       .  A
C1407      C1412   1.409       .  A
C1408      C1409   1.409       .  A
C1408     Br1419   1.932       .  S
C1409      C1410   1.417       .  A
C1409     Br1415   1.922       .  S
C1410      C1411   1.416       .  A
C1411      C1412   1.409       .  A
C1411     Br1420   1.927       .  S
C1412     Br1416   1.933       .  S
C1421      C1422   1.410       .  A
C1421      C1426   1.412       .  A
C1422      C1423   1.404       .  A
C1422     Br1434   1.924       .  S
C1423      C1424   1.406       .  A
C1423     Br1438   1.929       .  S
C1424      C1427   1.480       .  S
C1424      C1425   1.409       .  A
C1425      C1426   1.406       .  A
C1425     Br1433   1.931       .  S
C1426     Br1437   1.928       .  S
C1427      C1428   1.407       .  A
C1427      C1432   1.408       .  A
C1428      C1429   1.404       .  A
C1428     Br1439   1.931       .  S
C1429      C1430   1.414       .  A
C1429     Br1435   1.932       .  S
C1430      C1431   1.410       .  A
C1431      C1432   1.409       .  A
C1431     Br1440   1.921       .  S
C1432     Br1436   1.928       .  S
C1441      C1442   1.428       .  A
C1441      C1446   1.417   1_455  A
C1442      C1443   1.408       .  A
C1442     Br1454   1.937       .  S
C1443      C1444   1.406   1_455  A
C1443     Br1458   1.935       .  S
C1444      C1447   1.486   1_655  S
C1444      C1445   1.409       .  A
C1445      C1446   1.406       .  A
C1445     Br1453   1.932       .  S
C1446     Br1457   1.931       .  S
C1447      C1448   1.413   1_455  A
C1447      C1452   1.409       .  A
C1448      C1449   1.409       .  A
C1448     Br1459   1.928       .  S
C1449      C1450   1.406   1_655  A
C1449     Br1455   1.925       .  S
C1450      C1451   1.409       .  A
C1451      C1452   1.403       .  A
C1451     Br1460   1.918       .  S
C1452     Br1456   1.935       .  S
C1461      C1462   1.421       .  A
C1461      C1466   1.419   1_655  A
C1462      C1463   1.403       .  A
C1462     Br1474   1.923       .  S
C1463      C1464   1.404       .  A
C1463     Br1478   1.939       .  S
C1464      C1467   1.479       .  S
C1464      C1465   1.405   1_655  A
C1465      C1466   1.410       .  A
C1465     Br1473   1.930       .  S
C1466     Br1477   1.931       .  S
C1467      C1468   1.404   1_655  A
C1467      C1472   1.405       .  A
C1468      C1469   1.403       .  A
C1468     Br1479   1.932       .  S
C1469      C1470   1.416   1_455  A
C1469     Br1475   1.920       .  S
C1470      C1471   1.425       .  A
C1471      C1472   1.405       .  A
C1471     Br1480   1.938       .  S
C1472     Br1476   1.932       .  S
C1481      C1482   1.425       .  A
C1481      C1486   1.421       .  A
C1482      C1483   1.411       .  A
C1482     Br1494   1.927       .  S
C1483      C1484   1.405       .  A
C1483     Br1498   1.935       .  S
C1484      C1487   1.479       .  S
C1484      C1485   1.404       .  A
C1485      C1486   1.403       .  A
C1485     Br1493   1.934       .  S
C1486     Br1497   1.935       .  S
C1487      C1488   1.410       .  A
C1487      C1492   1.408       .  A
C1488      C1489   1.405       .  A
C1488     Br1499   1.928       .  S
C1489      C1490   1.407       .  A
C1489     Br1495   1.925       .  S
C1490      C1491   1.408       .  A
C1491      C1492   1.402       .  A
C1491     Br1500   1.925       .  S
C1492     Br1496   1.931       .  S
C1501      C1502   1.429       .  A
C1501      C1506   1.425       .  A
C1502      C1503   1.409       .  A
C1502     Br1514   1.937       .  S
C1503      C1504   1.404       .  A
C1503     Br1518   1.934       .  S
C1504      C1507   1.486       .  S
C1504      C1505   1.404       .  A
C1505      C1506   1.406       .  A
C1505     Br1513   1.936       .  S
C1506     Br1517   1.929       .  S
C1507      C1508   1.407       .  A
C1507      C1512   1.405       .  A
C1508      C1509   1.408       .  A
C1508     Br1519   1.933       .  S
C1509      C1510   1.420       .  A
C1509     Br1515   1.934       .  S
C1510      C1511   1.426       .  A
C1511      C1512   1.408       .  A
C1511     Br1520   1.938       .  S
C1512     Br1516   1.935       .  S
C1521      C1522   1.418       .  A
C1521      C1526   1.415       .  A
C1522      C1523   1.417       .  A
C1522     Br1534   1.925       .  S
C1523      C1524   1.410       .  A
C1523     Br1538   1.929       .  S
C1524      C1527   1.494       .  S
C1524      C1525   1.406       .  A
C1525      C1526   1.407       .  A
C1525     Br1533   1.937       .  S
C1526     Br1537   1.909       .  S
C1527      C1528   1.409       .  A
C1527      C1532   1.412       .  A
C1528      C1529   1.407       .  A
C1528     Br1539   1.935       .  S
C1529      C1530   1.415       .  A
C1529     Br1535   1.923       .  S
C1530      C1531   1.414       .  A
C1531      C1532   1.413       .  A
C1531     Br1540   1.932       .  S
C1532     Br1536   1.928       .  S
C1541      C1542   1.417       .  A
C1541      C1546   1.417       .  A
C1542      C1543   1.411       .  A
C1542     Br1554   1.930       .  S
C1543      C1544   1.410       .  A
C1543     Br1558   1.932       .  S
C1544      C1547   1.495       .  S
C1544      C1545   1.410       .  A
C1545      C1546   1.413       .  A
C1545     Br1553   1.931       .  S
C1546     Br1557   1.931       .  S
C1547      C1548   1.406       .  A
C1547      C1552   1.404       .  A
C1548      C1549   1.413       .  A
C1548     Br1559   1.932       .  S
C1549      C1550   1.430       .  A
C1549     Br1555   1.937       .  S
C1550      C1551   1.426       .  A
C1551      C1552   1.410       .  A
C1551     Br1560   1.926       .  S
C1552     Br1556   1.936       .  S
C1561      C1562   1.409       .  A
C1561      C1566   1.406       .  A
C1562      C1563   1.404       .  A
C1562     Br1574   1.928   1_455  S
C1563      C1564   1.408       .  A
C1563     Br1578   1.929       .  S
C1564      C1567   1.475       .  S
C1564      C1565   1.409       .  A
C1565      C1566   1.403       .  A
C1565     Br1573   1.931       .  S
C1566     Br1577   1.927       .  S
C1567      C1568   1.403       .  A
C1567      C1572   1.401       .  A
C1568      C1569   1.406       .  A
C1568     Br1579   1.933       .  S
C1569      C1570   1.419       .  A
C1569     Br1575   1.927       .  S
C1570      C1571   1.420       .  A
C1571      C1572   1.406       .  A
C1571     Br1580   1.915       .  S
C1572     Br1576   1.935       .  S
C1581      C1582   1.425       .  A
C1581      C1586   1.415       .  A
C1582      C1583   1.405       .  A
C1582     Br1594   1.939       .  S
C1583      C1584   1.404       .  A
C1583     Br1598   1.935       .  S
C1584      C1587   1.481       .  S
C1584      C1585   1.406       .  A
C1585      C1586   1.409       .  A
C1585     Br1593   1.931       .  S
C1586     Br1597   1.926       .  S
C1587      C1588   1.404       .  A
C1587      C1592   1.402       .  A
C1588      C1589   1.409       .  A
C1588     Br1599   1.934       .  S
C1589      C1590   1.428       .  A
C1589     Br1595   1.939       .  S
C1590      C1591   1.430       .  A
C1591      C1592   1.406       .  A
C1591     Br1600   1.940       .  S
C1592     Br1596   1.936       .  S
C1601      C1602   1.429       .  A
C1601      C1606   1.425       .  A
C1602      C1603   1.413       .  A
C1602     Br1614   1.934       .  S
C1603      C1604   1.407       .  A
C1603     Br1618   1.935       .  S
C1604      C1607   1.500       .  S
C1604      C1605   1.409       .  A
C1605      C1606   1.414       .  A
C1605     Br1613   1.935       .  S
C1606     Br1617   1.930       .  S
C1607      C1608   1.404       .  A
C1607      C1612   1.402       .  A
C1608      C1609   1.415       .  A
C1608     Br1619   1.936       .  S
C1609      C1610   1.435       .  A
C1609     Br1615   1.923       .  S
C1610      C1611   1.433       .  A
C1611      C1612   1.412       .  A
C1611     Br1620   1.926       .  S
C1612     Br1616   1.936       .  S
C1621      C1622   1.422       .  A
C1621      C1626   1.422       .  A
C1622      C1623   1.412       .  A
C1622     Br1634   1.936       .  S
C1623      C1624   1.410       .  A
C1623     Br1638   1.933       .  S
C1624      C1627   1.496       .  S
C1624      C1625   1.408       .  A
C1625      C1626   1.410       .  A
C1625     Br1633   1.933       .  S
C1626     Br1637   1.935       .  S
C1627      C1628   1.406       .  A
C1627      C1632   1.408       .  A
C1628      C1629   1.411       .  A
C1628     Br1639   1.934       .  S
C1629      C1630   1.427       .  A
C1629     Br1635   1.936       .  S
C1630      C1631   1.425       .  A
C1631      C1632   1.412       .  A
C1631     Br1640   1.929       .  S
C1632     Br1636   1.935       .  S
C1641      C1642   1.429       .  A
C1641      C1646   1.424   1_655  A
C1642      C1643   1.406       .  A
C1642     Br1654   1.937       .  S
C1643      C1644   1.402       .  A
C1643     Br1658   1.934       .  S
C1644      C1647   1.480   1_655  S
C1644      C1645   1.406   1_655  A
C1645      C1646   1.405       .  A
C1645     Br1653   1.935       .  S
C1646     Br1657   1.939       .  S
C1647      C1648   1.407   1_455  A
C1647      C1652   1.399       .  A
C1648      C1649   1.413       .  A
C1648     Br1659   1.933       .  S
C1649      C1650   1.427   1_655  A
C1649     Br1655   1.930   1_655  S
C1650      C1651   1.424       .  A
C1651      C1652   1.398       .  A
C1651     Br1660   1.925       .  S
C1652     Br1656   1.936       .  S
C1661      C1662   1.432       .  A
C1661      C1666   1.423   1_655  A
C1662      C1663   1.404       .  A
C1662     Br1674   1.938       .  S
C1663      C1664   1.400       .  A
C1663     Br1678   1.936       .  S
C1664      C1667   1.483       .  S
C1664      C1665   1.405   1_655  A
C1665      C1666   1.412       .  A
C1665     Br1673   1.932       .  S
C1666     Br1677   1.926       .  S
C1667      C1668   1.407       .  A
C1667      C1672   1.404   1_655  A
C1668      C1669   1.408       .  A
C1668     Br1679   1.935       .  S
C1669      C1670   1.424       .  A
C1669     Br1675   1.937       .  S
C1670      C1671   1.418   1_655  A
C1671      C1672   1.407       .  A
C1671     Br1680   1.932       .  S
C1672     Br1676   1.930       .  S
C1681      C1682   1.416       .  A
C1681      C1686   1.411       .  A
C1682      C1683   1.404       .  A
C1682     Br1694   1.925       .  S
C1683      C1684   1.406       .  A
C1683     Br1698   1.934       .  S
C1684      C1687   1.486       .  S
C1684      C1685   1.410       .  A
C1685      C1686   1.410       .  A
C1685     Br1693   1.929       .  S
C1686     Br1697   1.921       .  S
C1687      C1688   1.408       .  A
C1687      C1692   1.408       .  A
C1688      C1689   1.407       .  A
C1688     Br1699   1.929       .  S
C1689      C1690   1.414       .  A
C1689     Br1695   1.929       .  S
C1690      C1691   1.416       .  A
C1691      C1692   1.407       .  A
C1691     Br1700   1.923       .  S
C1692     Br1696   1.933       .  S
C1701      C1702   1.424       .  A
C1701      C1706   1.431       .  A
C1702      C1703   1.414       .  A
C1702     Br1714   1.928       .  S
C1703      C1704   1.408       .  A
C1703     Br1718   1.935       .  S
C1704      C1707   1.504       .  S
C1704      C1705   1.408       .  A
C1705      C1706   1.416       .  A
C1705     Br1713   1.933       .  S
C1706     Br1717   1.940       .  S
C1707      C1708   1.407       .  A
C1707      C1712   1.410       .  A
C1708      C1709   1.413       .  A
C1708     Br1719   1.937       .  S
C1709      C1710   1.432       .  A
C1709     Br1715   1.938       .  S
C1710      C1711   1.425       .  A
C1711      C1712   1.418       .  A
C1711     Br1720   1.934       .  S
C1712     Br1716   1.931       .  S
C1721      C1722   1.405       .  A
C1721      C1726   1.410       .  A
C1722      C1723   1.402       .  A
C1722     Br1734   1.917       .  S
C1723      C1724   1.408       .  A
C1723     Br1738   1.932       .  S
C1724      C1727   1.479       .  S
C1724      C1725   1.409       .  A
C1725      C1726   1.408       .  A
C1725     Br1733   1.928       .  S
C1726     Br1737   1.929       .  S
C1727      C1728   1.403       .  A
C1727      C1732   1.403       .  A
C1728      C1729   1.407       .  A
C1728     Br1739   1.932       .  S
C1729      C1730   1.417       .  A
C1729     Br1735   1.923       .  S
C1730      C1731   1.420       .  A
C1731      C1732   1.407       .  A
C1731     Br1740   1.919       .  S
C1732     Br1736   1.935       .  S
C1741      C1742   1.407       .  A
C1741      C1746   1.412       .  A
C1742      C1743   1.411       .  A
C1742     Br1754   1.923       .  S
C1743      C1744   1.416       .  A
C1743     Br1758   1.931       .  S
C1744      C1747   1.502       .  S
C1744      C1745   1.415       .  A
C1745      C1746   1.410       .  A
C1745     Br1753   1.931       .  S
C1746     Br1757   1.932       .  S
C1747      C1748   1.419       .  A
C1747      C1752   1.416       .  A
C1748      C1749   1.416       .  A
C1748     Br1759   1.930       .  S
C1749      C1750   1.409       .  A
C1749     Br1755   1.929       .  S
C1750      C1751   1.404       .  A
C1751      C1752   1.405       .  A
C1751     Br1760   1.929       .  S
C1752     Br1756   1.931       .  S
C1761      C1762   1.416       .  A
C1761      C1766   1.422       .  A
C1762      C1763   1.411       .  A
C1762     Br1774   1.918       .  S
C1763      C1764   1.409       .  A
C1763     Br1778   1.934       .  S
C1764      C1767   1.499       .  S
C1764      C1765   1.410       .  A
C1765      C1766   1.415       .  A
C1765     Br1773   1.931       .  S
C1766     Br1777   1.931       .  S
C1767      C1768   1.412       .  A
C1767      C1772   1.409       .  A
C1768      C1769   1.415       .  A
C1768     Br1779   1.929       .  S
C1769      C1770   1.416       .  A
C1769     Br1775   1.930       .  S
C1770      C1771   1.416       .  A
C1771      C1772   1.410       .  A
C1771     Br1780   1.918   1_565  S
C1772     Br1776   1.935       .  S
C1781      C1782   1.423       .  A
C1781      C1786   1.423       .  A
C1782      C1783   1.411       .  A
C1782     Br1794   1.925       .  S
C1783      C1784   1.406       .  A
C1783     Br1798   1.934       .  S
C1784      C1787   1.491       .  S
C1784      C1785   1.407       .  A
C1785      C1786   1.409       .  A
C1785     Br1793   1.933       .  S
C1786     Br1797   1.936       .  S
C1787      C1788   1.405       .  A
C1787      C1792   1.403       .  A
C1788      C1789   1.411       .  A
C1788     Br1799   1.936       .  S
C1789      C1790   1.428       .  A
C1789     Br1795   1.929       .  S
C1790      C1791   1.426       .  A
C1791      C1792   1.409       .  A
C1791     Br1800   1.929       .  S
C1792     Br1796   1.933       .  S
C1801      C1802   1.422       .  A
C1801      C1806   1.425       .  A
C1802      C1803   1.410       .  A
C1802     Br1814   1.934       .  S
C1803      C1804   1.411       .  A
C1803     Br1818   1.934       .  S
C1804      C1807   1.504       .  S
C1804      C1805   1.411       .  A
C1805      C1806   1.418       .  A
C1805     Br1813   1.932       .  S
C1806     Br1817   1.932       .  S
C1807      C1808   1.416       .  A
C1807      C1812   1.410       .  A
C1808      C1809   1.417       .  A
C1808     Br1819   1.928       .  S
C1809      C1810   1.416       .  A
C1809     Br1815   1.932       .  S
C1810      C1811   1.411       .  A
C1811      C1812   1.407       .  A
C1811     Br1820   1.913   1_565  S
C1812     Br1816   1.935       .  S
C1821      C1822   1.406       .  A
C1821      C1826   1.417       .  A
C1822      C1823   1.405       .  A
C1822     Br1834   1.919       .  S
C1823      C1824   1.411       .  A
C1823     Br1838   1.931       .  S
C1824      C1827   1.492       .  S
C1824      C1825   1.412       .  A
C1825      C1826   1.411       .  A
C1825     Br1833   1.933       .  S
C1826     Br1837   1.929       .  S
C1827      C1828   1.412       .  A
C1827      C1832   1.411       .  A
C1828      C1829   1.409       .  A
C1828     Br1839   1.932       .  S
C1829      C1830   1.416       .  A
C1829     Br1835   1.936       .  S
C1830      C1831   1.411       .  A
C1831      C1832   1.407       .  A
C1831     Br1840   1.925       .  S
C1832     Br1836   1.933       .  S
C1841      C1842   1.436       .  A
C1841      C1846   1.429       .  A
C1842      C1843   1.406       .  A
C1842     Br1854   1.939       .  S
C1843      C1844   1.399       .  A
C1843     Br1858   1.937       .  S
C1844      C1847   1.475       .  S
C1844      C1845   1.398       .  A
C1845      C1846   1.406       .  A
C1845     Br1853   1.937       .  S
C1846     Br1857   1.921       .  S
C1847      C1848   1.410       .  A
C1847      C1852   1.404       .  A
C1848      C1849   1.407       .  A
C1848     Br1859   1.931       .  S
C1849      C1850   1.409       .  A
C1849     Br1855   1.928       .  S
C1850      C1851   1.412       .  A
C1851      C1852   1.402       .  A
C1851     Br1860   1.932       .  S
C1852     Br1856   1.931       .  S
C1861      C1862   1.420       .  A
C1861      C1866   1.416       .  A
C1862      C1863   1.401       .  A
C1862     Br1874   1.930       .  S
C1863      C1864   1.404       .  A
C1863     Br1878   1.936       .  S
C1864      C1867   1.483       .  S
C1864      C1865   1.408       .  A
C1865      C1866   1.413       .  A
C1865     Br1873   1.930       .  S
C1866     Br1877   1.923       .  S
C1867      C1868   1.399       .  A
C1867      C1872   1.406       .  A
C1868      C1869   1.405       .  A
C1868     Br1879   1.942       .  S
C1869      C1870   1.440       .  A
C1869     Br1875   1.948       .  S
C1870      C1871   1.421       .  A
C1871      C1872   1.413       .  A
C1871     Br1880   1.931       .  S
C1872     Br1876   1.930       .  S
C1881      C1882   1.422       .  A
C1881      C1886   1.429       .  A
C1882      C1883   1.409       .  A
C1882     Br1894   1.927       .  S
C1883      C1884   1.405       .  A
C1883     Br1898   1.933       .  S
C1884      C1887   1.487       .  S
C1884      C1885   1.405       .  A
C1885      C1886   1.408       .  A
C1885     Br1893   1.934       .  S
C1886     Br1897   1.939       .  S
C1887      C1888   1.409       .  A
C1887      C1892   1.407       .  A
C1888      C1889   1.412       .  A
C1888     Br1899   1.929       .  S
C1889      C1890   1.417       .  A
C1889     Br1895   1.932       .  S
C1890      C1891   1.415       .  A
C1891      C1892   1.404       .  A
C1891     Br1900   1.928       .  S
C1892     Br1896   1.936       .  S
C1901      C1902   1.416       .  A
C1901      C1906   1.411       .  A
C1902      C1903   1.405       .  A
C1902     Br1914   1.928       .  S
C1903      C1904   1.405       .  A
C1903     Br1918   1.931       .  S
C1904      C1907   1.485       .  S
C1904      C1905   1.410       .  A
C1905      C1906   1.411       .  A
C1905     Br1913   1.930       .  S
C1906     Br1917   1.920       .  S
C1907      C1908   1.407       .  A
C1907      C1912   1.404       .  A
C1908      C1909   1.415       .  A
C1908     Br1919   1.930       .  S
C1909      C1910   1.424       .  A
C1909     Br1915   1.932       .  S
C1910      C1911   1.424       .  A
C1911      C1912   1.403       .  A
C1911     Br1920   1.938       .  S
C1912     Br1916   1.937       .  S
C1921      C1922   1.431       .  A
C1921      C1926   1.431   1_556  A
C1922      C1923   1.407       .  A
C1922     Br1934   1.937       .  S
C1923      C1924   1.402       .  A
C1923     Br1938   1.935       .  S
C1924      C1927   1.483       .  S
C1924      C1925   1.404   1_556  A
C1925      C1926   1.410       .  A
C1925     Br1933   1.935       .  S
C1926     Br1937   1.938       .  S
C1927      C1928   1.413       .  A
C1927      C1932   1.407       .  A
C1928      C1929   1.407       .  A
C1928     Br1939   1.928       .  S
C1929      C1930   1.405       .  A
C1929     Br1935   1.929       .  S
C1930      C1931   1.410       .  A
C1931      C1932   1.404       .  A
C1931     Br1940   1.921   1_556  S
C1932     Br1936   1.932   1_556  S
C1941      C1942   1.417       .  A
C1941      C1946   1.415   1_556  A
C1942      C1943   1.411       .  A
C1942     Br1954   1.931       .  S
C1943      C1944   1.406       .  A
C1943     Br1958   1.929       .  S
C1944      C1947   1.490       .  S
C1944      C1945   1.409       .  A
C1945      C1946   1.410   1_556  A
C1945     Br1953   1.931   1_556  S
C1946     Br1957   1.930       .  S
C1947      C1948   1.407       .  A
C1947      C1952   1.414       .  A
C1948      C1949   1.405       .  A
C1948     Br1959   1.926       .  S
C1949      C1950   1.407       .  A
C1949     Br1955   1.926       .  S
C1950      C1951   1.410       .  A
C1951      C1952   1.413       .  A
C1951     Br1960   1.925       .  S
C1952     Br1956   1.928       .  S
C1961      C1962   1.428       .  A
C1961      C1966   1.431   1_556  A
C1962      C1963   1.410       .  A
C1962     Br1974   1.936       .  S
C1963      C1964   1.405   1_556  A
C1963     Br1978   1.933       .  S
C1964      C1967   1.488       .  S
C1964      C1965   1.402       .  A
C1965      C1966   1.409       .  A
C1965     Br1973   1.934       .  S
C1966     Br1977   1.937       .  S
C1967      C1968   1.407       .  A
C1967      C1972   1.415       .  A
C1968      C1969   1.405       .  A
C1968     Br1979   1.929       .  S
C1969      C1970   1.411       .  A
C1969     Br1975   1.930       .  S
C1970      C1971   1.406       .  A
C1971      C1972   1.410       .  A
C1971     Br1980   1.929       .  S
C1972     Br1976   1.928       .  S
C1981      C1982   1.412   1_556  A
C1981      C1986   1.412       .  A
C1982      C1983   1.404       .  A
C1982     Br1994   1.932       .  S
C1983      C1984   1.409   1_554  A
C1983     Br1998   1.934       .  S
C1984      C1987   1.478       .  S
C1984      C1985   1.408       .  A
C1985      C1986   1.404       .  A
C1985     Br1993   1.930       .  S
C1986     Br1997   1.934       .  S
C1987      C1988   1.407       .  A
C1987      C1992   1.410       .  A
C1988      C1989   1.403       .  A
C1988     Br1999   1.932       .  S
C1989      C1990   1.408       .  A
C1989     Br1995   1.918   1_556  S
C1990      C1991   1.410       .  A
C1991      C1992   1.403       .  A
C1991     Br2000   1.931       .  S
C1992     Br1996   1.930       .  S
C2001      C2002   1.425       .  A
C2001      C2006   1.428       .  A
C2002      C2003   1.413       .  A
C2002     Br2014   1.932       .  S
C2003      C2004   1.407       .  A
C2003     Br2018   1.931       .  S
C2004      C2007   1.497       .  S
C2004      C2005   1.405       .  A
C2005      C2006   1.413       .  A
C2005     Br2013   1.933       .  S
C2006     Br2017   1.925       .  S
C2007      C2008   1.409       .  A
C2007      C2012   1.412       .  A
C2008      C2009   1.409       .  A
C2008     Br2019   1.933       .  S
C2009      C2010   1.415       .  A
C2009     Br2015   1.926       .  S
C2010      C2011   1.414       .  A
C2011      C2012   1.414       .  A
C2011     Br2020   1.931       .  S
C2012     Br2016   1.927       .  S
C2021      C2022   1.417       .  A
C2021      C2026   1.415       .  A
C2022      C2023   1.414       .  A
C2022     Br2034   1.919       .  S
C2023      C2024   1.407       .  A
C2023     Br2038   1.930       .  S
C2024      C2027   1.488       .  S
C2024      C2025   1.406       .  A
C2025      C2026   1.406       .  A
C2025     Br2033   1.934       .  S
C2026     Br2037   1.922       .  S
C2027      C2028   1.411       .  A
C2027      C2032   1.408       .  A
C2028      C2029   1.411       .  A
C2028     Br2039   1.928       .  S
C2029      C2030   1.413       .  A
C2029     Br2035   1.930       .  S
C2030      C2031   1.406       .  A
C2031      C2032   1.403       .  A
C2031     Br2040   1.916       .  S
C2032     Br2036   1.932       .  S
C2041      C2042   1.407       .  A
C2041      C2046   1.410       .  A
C2042      C2043   1.411       .  A
C2042     Br2054   1.917       .  S
C2043      C2044   1.412       .  A
C2043     Br2058   1.928   1_554  S
C2044      C2047   1.489       .  S
C2044      C2045   1.406       .  A
C2045      C2046   1.405       .  A
C2045     Br2053   1.932       .  S
C2046     Br2057   1.912       .  S
C2047      C2048   1.401       .  A
C2047      C2052   1.402   1_554  A
C2048      C2049   1.412       .  A
C2048     Br2059   1.938       .  S
C2049      C2050   1.438       .  A
C2049     Br2055   1.930       .  S
C2050      C2051   1.429   1_554  A
C2051      C2052   1.412       .  A
C2051     Br2060   1.924       .  S
C2052     Br2056   1.935       .  S
C2061      C2062   1.418       .  A
C2061      C2066   1.409   1_554  A
C2062      C2063   1.401       .  A
C2062     Br2074   1.923       .  S
C2063      C2064   1.401       .  A
C2063     Br2078   1.934       .  S
C2064      C2067   1.474       .  S
C2064      C2065   1.407   1_554  A
C2065      C2066   1.408       .  A
C2065     Br2073   1.929       .  S
C2066     Br2077   1.921       .  S
C2067      C2068   1.402       .  A
C2067      C2072   1.405       .  A
C2068      C2069   1.406       .  A
C2068     Br2079   1.931       .  S
C2069      C2070   1.426       .  A
C2069     Br2075   1.938   1_565  S
C2070      C2071   1.421       .  A
C2071      C2072   1.402       .  A
C2071     Br2080   1.937       .  S
C2072     Br2076   1.936   1_554  S
C2081      C2082   1.426       .  A
C2081      C2086   1.425   1_556  A
C2082      C2083   1.400       .  A
C2082     Br2094   1.938       .  S
C2083      C2084   1.401       .  A
C2083     Br2098   1.934       .  S
C2084      C2087   1.474       .  S
C2084      C2085   1.402   1_556  A
C2085      C2086   1.407       .  A
C2085     Br2093   1.935       .  S
C2086     Br2097   1.921       .  S
C2087      C2088   1.410       .  A
C2087      C2092   1.407   1_556  A
C2088      C2089   1.401       .  A
C2088     Br2099   1.933       .  S
C2089      C2090   1.406       .  A
C2089     Br2095   1.926       .  S
C2090      C2091   1.410   1_556  A
C2091      C2092   1.404       .  A
C2091     Br2100   1.928       .  S
C2092     Br2096   1.930       .  S
C2101      C2102   1.420       .  A
C2101      C2106   1.438   1_554  A
C2102      C2103   1.416       .  A
C2102     Br2114   1.933       .  S
C2103      C2104   1.409       .  A
C2103     Br2118   1.927       .  S
C2104      C2107   1.486       .  S
C2104      C2105   1.399   1_554  A
C2105      C2106   1.400       .  A
C2105     Br2113   1.944       .  S
C2106     Br2117   1.950       .  S
C2107      C2108   1.410       .  A
C2107      C2112   1.408   1_554  A
C2108      C2109   1.416       .  A
C2108     Br2119   1.929       .  S
C2109      C2110   1.416       .  A
C2109     Br2115   1.923       .  S
C2110      C2111   1.415   1_554  A
C2111      C2112   1.400       .  A
C2111     Br2120   1.934       .  S
C2112     Br2116   1.936       .  S
C2121      C2122   1.429       .  A
C2121      C2126   1.425       .  A
C2122      C2123   1.406       .  A
C2122     Br2134   1.922       .  S
C2123      C2124   1.400       .  A
C2123     Br2138   1.938       .  S
C2124      C2127   1.484       .  S
C2124      C2125   1.406       .  A
C2125      C2126   1.411       .  A
C2125     Br2133   1.934   1_545  S
C2126     Br2137   1.932   1_545  S
C2127      C2128   1.408   1_545  A
C2127      C2132   1.406       .  A
C2128      C2129   1.409       .  A
C2128     Br2139   1.929       .  S
C2129      C2130   1.416   1_565  A
C2129     Br2135   1.929       .  S
C2130      C2131   1.415       .  A
C2131      C2132   1.402       .  A
C2131     Br2140   1.921       .  S
C2132     Br2136   1.935       .  S
C2141      C2142   1.426       .  A
C2141      C2146   1.434   1_545  A
C2142      C2143   1.404       .  A
C2142     Br2154   1.929       .  S
C2143      C2144   1.400       .  A
C2143     Br2158   1.933       .  S
C2144      C2147   1.490       .  S
C2144      C2145   1.406   1_545  A
C2145      C2146   1.418       .  A
C2145     Br2153   1.934       .  S
C2146     Br2157   1.933       .  S
C2147      C2148   1.408       .  A
C2147      C2152   1.413       .  A
C2148      C2149   1.408       .  A
C2148     Br2159   1.929   1_545  S
C2149      C2150   1.411       .  A
C2149     Br2155   1.931       .  S
C2150      C2151   1.407       .  A
C2151      C2152   1.410       .  A
C2151     Br2160   1.930       .  S
C2152     Br2156   1.929       .  S
C2161      C2162   1.409       .  A
C2161      C2166   1.409       .  A
C2162      C2163   1.404       .  A
C2162     Br2174   1.929       .  S
C2163      C2164   1.408       .  A
C2163     Br2178   1.931       .  S
C2164      C2167   1.481       .  S
C2164      C2165   1.410       .  A
C2165      C2166   1.408       .  A
C2165     Br2173   1.930       .  S
C2166     Br2177   1.928       .  S
C2167      C2168   1.404       .  A
C2167      C2172   1.404       .  A
C2168      C2169   1.407       .  A
C2168     Br2179   1.932       .  S
C2169      C2170   1.418       .  A
C2169     Br2175   1.921       .  S
C2170      C2171   1.419       .  A
C2171      C2172   1.408       .  A
C2171     Br2180   1.916       .  S
C2172     Br2176   1.935       .  S
C2181      C2182   1.426       .  A
C2181      C2186   1.428       .  A
C2182      C2183   1.410       .  A
C2182     Br2194   1.937       .  S
C2183      C2184   1.405       .  A
C2183     Br2198   1.933       .  S
C2184      C2187   1.489       .  S
C2184      C2185   1.406       .  A
C2185      C2186   1.410       .  A
C2185     Br2193   1.935       .  S
C2186     Br2197   1.939       .  S
C2187      C2188   1.405       .  A
C2187      C2192   1.407       .  A
C2188      C2189   1.408       .  A
C2188     Br2199   1.934       .  S
C2189      C2190   1.425       .  A
C2189     Br2195   1.936       .  S
C2190      C2191   1.418       .  A
C2191      C2192   1.412       .  A
C2191     Br2200   1.924       .  S
C2192     Br2196   1.933       .  S
C2201      C2202   1.430       .  A
C2201      C2206   1.430       .  A
C2202      C2203   1.410       .  A
C2202     Br2214   1.929       .  S
C2203      C2204   1.404       .  A
C2203     Br2218   1.940       .  S
C2204      C2207   1.489       .  S
C2204      C2205   1.403       .  A
C2205      C2206   1.411       .  A
C2205     Br2213   1.933       .  S
C2206     Br2217   1.937       .  S
C2207      C2208   1.404       .  A
C2207      C2212   1.407       .  A
C2208      C2209   1.408       .  A
C2208     Br2219   1.934       .  S
C2209      C2210   1.426       .  A
C2209     Br2215   1.936       .  S
C2210      C2211   1.426       .  A
C2211      C2212   1.412       .  A
C2211     Br2220   1.934       .  S
C2212     Br2216   1.934       .  S
C2221      C2222   1.412       .  A
C2221      C2226   1.407       .  A
C2222      C2223   1.411       .  A
C2222     Br2234   1.929       .  S
C2223      C2224   1.411       .  A
C2223     Br2238   1.931       .  S
C2224      C2227   1.494       .  S
C2224      C2225   1.414       .  A
C2225      C2226   1.410       .  A
C2225     Br2233   1.928       .  S
C2226     Br2237   1.930       .  S
C2227      C2228   1.407       .  A
C2227      C2232   1.406       .  A
C2228      C2229   1.412       .  A
C2228     Br2239   1.930       .  S
C2229      C2230   1.425       .  A
C2229     Br2235   1.935       .  S
C2230      C2231   1.426       .  A
C2231      C2232   1.411       .  A
C2231     Br2240   1.932       .  S
C2232     Br2236   1.934       .  S
C2241      C2242   1.433       .  A
C2241      C2246   1.429       .  A
C2242      C2243   1.410       .  A
C2242     Br2254   1.936       .  S
C2243      C2244   1.402       .  A
C2243     Br2258   1.933       .  S
C2244      C2247   1.489       .  S
C2244      C2245   1.404       .  A
C2245      C2246   1.411       .  A
C2245     Br2253   1.935       .  S
C2246     Br2257   1.932       .  S
C2247      C2248   1.404       .  A
C2247      C2252   1.408       .  A
C2248      C2249   1.407       .  A
C2248     Br2259   1.930       .  S
C2249      C2250   1.419       .  A
C2249     Br2255   1.931       .  S
C2250      C2251   1.425       .  A
C2251      C2252   1.413       .  A
C2251     Br2260   1.934       .  S
C2252     Br2256   1.933       .  S
C2261      C2262   1.424       .  A
C2261      C2266   1.423       .  A
C2262      C2263   1.412       .  A
C2262     Br2274   1.934       .  S
C2263      C2264   1.407       .  A
C2263     Br2278   1.933       .  S
C2264      C2267   1.490       .  S
C2264      C2265   1.405       .  A
C2265      C2266   1.409       .  A
C2265     Br2273   1.934       .  S
C2266     Br2277   1.929       .  S
C2267      C2268   1.405       .  A
C2267      C2272   1.406       .  A
C2268      C2269   1.410       .  A
C2268     Br2279   1.935       .  S
C2269      C2270   1.423       .  A
C2269     Br2275   1.925       .  S
C2270      C2271   1.419       .  A
C2271      C2272   1.411       .  A
C2271     Br2280   1.922       .  S
C2272     Br2276   1.933       .  S
C2281      C2282   1.425       .  A
C2281      C2286   1.427       .  A
C2282      C2283   1.403       .  A
C2282     Br2294   1.925       .  S
C2283      C2284   1.400       .  A
C2283     Br2298   1.939       .  S
C2284      C2287   1.473       .  S
C2284      C2285   1.401       .  A
C2285      C2286   1.405       .  A
C2285     Br2293   1.932       .  S
C2286     Br2297   1.938       .  S
C2287      C2288   1.400       .  A
C2287      C2292   1.401       .  A
C2288      C2289   1.404       .  A
C2288     Br2299   1.937       .  S
C2289      C2290   1.429       .  A
C2289     Br2295   1.939       .  S
C2290      C2291   1.429       .  A
C2291      C2292   1.406       .  A
C2291     Br2300   1.938       .  S
C2292     Br2296   1.935       .  S
C2301      C2302   1.408       .  A
C2301      C2306   1.409       .  A
C2302      C2303   1.405       .  A
C2302     Br2314   1.929   1_565  S
C2303      C2304   1.409       .  A
C2303     Br2318   1.931       .  S
C2304      C2307   1.478       .  S
C2304      C2305   1.408       .  A
C2305      C2306   1.406       .  A
C2305     Br2313   1.930       .  S
C2306     Br2317   1.929       .  S
C2307      C2308   1.403       .  A
C2307      C2312   1.403       .  A
C2308      C2309   1.405       .  A
C2308     Br2319   1.931       .  S
C2309      C2310   1.416       .  A
C2309     Br2315   1.921       .  S
C2310      C2311   1.418       .  A
C2311      C2312   1.406       .  A
C2311     Br2320   1.916   1_554  S
C2312     Br2316   1.934       .  S
C2321      C2322   1.427       .  A
C2321      C2326   1.425       .  A
C2322      C2323   1.411       .  A
C2322     Br2334   1.929       .  S
C2323      C2324   1.405       .  A
C2323     Br2338   1.937       .  S
C2324      C2327   1.486       .  S
C2324      C2325   1.404       .  A
C2325      C2326   1.406       .  A
C2325     Br2333   1.936       .  S
C2326     Br2337   1.932       .  S
C2327      C2328   1.407       .  A
C2327      C2332   1.407       .  A
C2328      C2329   1.406       .  A
C2328     Br2339   1.934       .  S
C2329      C2330   1.422       .  A
C2329     Br2335   1.935       .  S
C2330      C2331   1.421       .  A
C2331      C2332   1.407       .  A
C2331     Br2340   1.936       .  S
C2332     Br2336   1.933       .  S
C2341      C2342   1.412       .  A
C2341      C2346   1.407       .  A
C2342      C2343   1.406       .  A
C2342     Br2354   1.919       .  S
C2343      C2344   1.405       .  A
C2343     Br2358   1.931       .  S
C2344      C2347   1.482       .  S
C2344      C2345   1.410       .  A
C2345      C2346   1.407       .  A
C2345     Br2353   1.931       .  S
C2346     Br2357   1.920       .  S
C2347      C2348   1.404       .  A
C2347      C2352   1.400       .  A
C2348      C2349   1.410       .  A
C2348     Br2359   1.933       .  S
C2349      C2350   1.428       .  A
C2349     Br2355   1.936       .  S
C2350      C2351   1.426       .  A
C2351      C2352   1.404       .  A
C2351     Br2360   1.926       .  S
C2352     Br2356   1.936       .  S
C2361      C2362   1.421       .  A
C2361      C2366   1.413       .  A
C2362      C2363   1.410       .  A
C2362     Br2374   1.931       .  S
C2363      C2364   1.407       .  A
C2363     Br2378   1.933       .  S
C2364      C2367   1.494       .  S
C2364      C2365   1.410       .  A
C2365      C2366   1.412       .  A
C2365     Br2373   1.931       .  S
C2366     Br2377   1.920       .  S
C2367      C2368   1.411       .  A
C2367      C2372   1.408       .  A
C2368      C2369   1.411       .  A
C2368     Br2379   1.933       .  S
C2369      C2370   1.419       .  A
C2369     Br2375   1.932       .  S
C2370      C2371   1.421       .  A
C2371      C2372   1.411       .  A
C2371     Br2380   1.929       .  S
C2372     Br2376   1.934       .  S
C2381      C2382   1.413       .  A
C2381      C2386   1.417       .  A
C2382      C2383   1.407       .  A
C2382     Br2394   1.921       .  S
C2383      C2384   1.407       .  A
C2383     Br2398   1.933       .  S
C2384      C2387   1.487       .  S
C2384      C2385   1.409       .  A
C2385      C2386   1.409       .  A
C2385     Br2393   1.931       .  S
C2386     Br2397   1.933       .  S
C2387      C2388   1.409       .  A
C2387      C2392   1.415       .  A
C2388      C2389   1.402       .  A
C2388     Br2399   1.930       .  S
C2389      C2390   1.405       .  A
C2389     Br2395   1.925       .  S
C2390      C2391   1.406       .  A
C2391      C2392   1.411       .  A
C2391     Br2400   1.928       .  S
C2392     Br2396   1.928       .  S
C2401      C2402   1.429       .  A
C2401      C2406   1.438   1_545  A
C2402      C2403   1.411       .  A
C2402     Br2414   1.924       .  S
C2403      C2404   1.402       .  A
C2403     Br2418   1.934       .  S
C2404      C2407   1.489       .  S
C2404      C2405   1.401   1_545  A
C2405      C2406   1.411       .  A
C2405     Br2413   1.937       .  S
C2406     Br2417   1.936       .  S
C2407      C2408   1.406   1_545  A
C2407      C2412   1.411       .  A
C2408      C2409   1.407       .  A
C2408     Br2419   1.932       .  S
C2409      C2410   1.416   1_565  A
C2409     Br2415   1.931       .  S
C2410      C2411   1.415       .  A
C2411      C2412   1.412       .  A
C2411     Br2420   1.930       .  S
C2412     Br2416   1.931       .  S
C2421      C2422   1.419   1_545  A
C2421      C2426   1.419       .  A
C2422      C2423   1.409       .  A
C2422     Br2434   1.932       .  S
C2423      C2424   1.405   1_565  A
C2423     Br2438   1.931       .  S
C2424      C2427   1.474       .  S
C2424      C2425   1.405       .  A
C2425      C2426   1.401       .  A
C2425     Br2433   1.938       .  S
C2426     Br2437   1.929       .  S
C2427      C2428   1.399       .  A
C2427      C2432   1.408   1_545  A
C2428      C2429   1.396       .  A
C2428     Br2439   1.939       .  S
C2429      C2430   1.421       .  A
C2429     Br2435   1.919       .  S
C2430      C2431   1.417   1_545  A
C2431      C2432   1.409       .  A
C2431     Br2440   1.934       .  S
C2432     Br2436   1.923       .  S
C2441      C2442   1.419       .  A
C2441      C2446   1.415       .  A
C2442      C2443   1.407       .  A
C2442     Br2454   1.933       .  S
C2443      C2444   1.406       .  A
C2443     Br2458   1.932       .  S
C2444      C2447   1.476       .  S
C2444      C2445   1.404       .  A
C2445      C2446   1.403       .  A
C2445     Br2453   1.936       .  S
C2446     Br2457   1.921       .  S
C2447      C2448   1.405       .  A
C2447      C2452   1.407       .  A
C2448      C2449   1.403       .  A
C2448     Br2459   1.934       .  S
C2449      C2450   1.412       .  A
C2449     Br2455   1.922       .  S
C2450      C2451   1.414       .  A
C2451      C2452   1.407       .  A
C2451     Br2460   1.926       .  S
C2452     Br2456   1.933       .  S
C2461      C2462   1.431       .  A
C2461      C2466   1.432       .  A
C2462      C2463   1.410       .  A
C2462     Br2474   1.924       .  S
C2463      C2464   1.401       .  A
C2463     Br2478   1.940       .  S
C2464      C2467   1.485       .  S
C2464      C2465   1.399       .  A
C2465      C2466   1.410       .  A
C2465     Br2473   1.937       .  S
C2466     Br2477   1.921       .  S
C2467      C2468   1.409       .  A
C2467      C2472   1.408       .  A
C2468      C2469   1.407       .  A
C2468     Br2479   1.930       .  S
C2469      C2470   1.415       .  A
C2469     Br2475   1.935       .  S
C2470      C2471   1.413       .  A
C2471      C2472   1.406       .  A
C2471     Br2480   1.928       .  S
C2472     Br2476   1.933       .  S
C2481      C2482   1.410       .  A
C2481      C2486   1.409       .  A
C2482      C2483   1.408       .  A
C2482     Br2494   1.927       .  S
C2483      C2484   1.408       .  A
C2483     Br2498   1.926       .  S
C2484      C2487   1.488       .  S
C2484      C2485   1.410       .  A
C2485      C2486   1.408       .  A
C2485     Br2493   1.929       .  S
C2486     Br2497   1.927       .  S
C2487      C2488   1.403       .  A
C2487      C2492   1.406       .  A
C2488      C2489   1.409       .  A
C2488     Br2499   1.936       .  S
C2489      C2490   1.422       .  A
C2489     Br2495   1.920       .  S
C2490      C2491   1.424       .  A
C2491      C2492   1.412       .  A
C2491     Br2500   1.934       .  S
C2492     Br2496   1.932       .  S
C2501      C2502   1.426       .  A
C2501      C2506   1.417       .  A
C2502      C2503   1.410       .  A
C2502     Br2514   1.937       .  S
C2503      C2504   1.406       .  A
C2503     Br2518   1.935       .  S
C2504      C2507   1.494       .  S
C2504      C2505   1.409       .  A
C2505      C2506   1.412       .  A
C2505     Br2513   1.932       .  S
C2506     Br2517   1.928       .  S
C2507      C2508   1.406       .  A
C2507      C2512   1.404       .  A
C2508      C2509   1.415       .  A
C2508     Br2519   1.936       .  S
C2509      C2510   1.432       .  A
C2509     Br2515   1.936       .  S
C2510      C2511   1.429       .  A
C2511      C2512   1.409       .  A
C2511     Br2520   1.937       .  S
C2512     Br2516   1.933       .  S
C2521      C2522   1.424       .  A
C2521      C2526   1.419       .  A
C2522      C2523   1.409       .  A
C2522     Br2534   1.922       .  S
C2523      C2524   1.405       .  A
C2523     Br2538   1.937       .  S
C2524      C2527   1.490       .  S
C2524      C2525   1.408       .  A
C2525      C2526   1.413       .  A
C2525     Br2533   1.929       .  S
C2526     Br2537   1.932       .  S
C2527      C2528   1.408       .  A
C2527      C2532   1.402       .  A
C2528      C2529   1.417       .  A
C2528     Br2539   1.932       .  S
C2529      C2530   1.429       .  A
C2529     Br2535   1.934       .  S
C2530      C2531   1.424       .  A
C2531      C2532   1.405       .  A
C2531     Br2540   1.923       .  S
C2532     Br2536   1.937       .  S
C2541      C2542   1.421       .  A
C2541      C2546   1.421       .  A
C2542      C2543   1.412       .  A
C2542     Br2554   1.933       .  S
C2543      C2544   1.406       .  A
C2543     Br2558   1.929       .  S
C2544      C2547   1.489       .  S
C2544      C2545   1.406       .  A
C2545      C2546   1.407       .  A
C2545     Br2553   1.932       .  S
C2546     Br2557   1.934       .  S
C2547      C2548   1.403       .  A
C2547      C2552   1.405       .  A
C2548      C2549   1.411       .  A
C2548     Br2559   1.932       .  S
C2549      C2550   1.427       .  A
C2549     Br2555   1.929       .  S
C2550      C2551   1.428       .  A
C2551      C2552   1.409       .  A
C2551     Br2560   1.937       .  S
C2552     Br2556   1.933       .  S
C2561      C2562   1.423       .  A
C2561      C2566   1.425       .  A
C2562      C2563   1.410       .  A
C2562     Br2574   1.934       .  S
C2563      C2564   1.407       .  A
C2563     Br2578   1.934       .  S
C2564      C2567   1.487       .  S
C2564      C2565   1.403       .  A
C2565      C2566   1.407       .  A
C2565     Br2573   1.934       .  S
C2566     Br2577   1.931       .  S
C2567      C2568   1.401       .  A
C2567      C2572   1.403       .  A
C2568      C2569   1.408       .  A
C2568     Br2579   1.940       .  S
C2569      C2570   1.432       .  A
C2569     Br2575   1.930       .  S
C2570      C2571   1.430       .  A
C2571      C2572   1.413       .  A
C2571     Br2580   1.931       .  S
C2572     Br2576   1.935       .  S
C2581      C2582   1.426       .  A
C2581      C2586   1.417       .  A
C2582      C2583   1.410       .  A
C2582     Br2594   1.935       .  S
C2583      C2584   1.406       .  A
C2583     Br2598   1.933       .  S
C2584      C2587   1.488       .  S
C2584      C2585   1.408       .  A
C2585      C2586   1.405       .  A
C2585     Br2593   1.931       .  S
C2586     Br2597   1.935       .  S
C2587      C2588   1.409       .  A
C2587      C2592   1.404       .  A
C2588      C2589   1.413       .  A
C2588     Br2599   1.931       .  S
C2589      C2590   1.418       .  A
C2589     Br2595   1.928       .  S
C2590      C2591   1.428       .  A
C2591      C2592   1.404       .  A
C2591     Br2600   1.939       .  S
C2592     Br2596   1.937       .  S
C2601      C2602   1.412       .  A
C2601      C2606   1.412       .  A
C2602      C2603   1.411       .  A
C2602     Br2614   1.928       .  S
C2603      C2604   1.411       .  A
C2603     Br2618   1.931       .  S
C2604      C2607   1.494       .  S
C2604      C2605   1.410       .  A
C2605      C2606   1.411       .  A
C2605     Br2613   1.928       .  S
C2606     Br2617   1.930       .  S
C2607      C2608   1.407       .  A
C2607      C2612   1.402       .  A
C2608      C2609   1.416       .  A
C2608     Br2619   1.930       .  S
C2609      C2610   1.420       .  A
C2609     Br2615   1.923       .  S
C2610      C2611   1.423       .  A
C2611      C2612   1.411       .  A
C2611     Br2620   1.911       .  S
C2612     Br2616   1.937       .  S
C2621      C2622   1.421       .  A
C2621      C2626   1.424       .  A
C2622      C2623   1.409       .  A
C2622     Br2634   1.934       .  S
C2623      C2624   1.408       .  A
C2623     Br2638   1.933       .  S
C2624      C2627   1.489       .  S
C2624      C2625   1.406       .  A
C2625      C2626   1.407       .  A
C2625     Br2633   1.934       .  S
C2626     Br2637   1.936       .  S
C2627      C2628   1.401       .  A
C2627      C2632   1.404       .  A
C2628      C2629   1.410       .  A
C2628     Br2639   1.938       .  S
C2629      C2630   1.435       .  A
C2629     Br2635   1.934       .  S
C2630      C2631   1.433       .  A
C2631      C2632   1.412       .  A
C2631     Br2640   1.933       .  S
C2632     Br2636   1.940       .  S
