geometry optimzed in LAMMPS
_audit_creation_date              2020-11-30 
_audit_creation_method            'lammps2cif' 
_symmetry_space_group_name_H-M    'P1' 
_symmetry_Int_Tables_number       1 
_symmetry_cell_setting            triclinic 
loop_ 
_symmetry_equiv_pos_as_xyz 
  x,y,z 
_cell_length_a                    40.03132667 
_cell_length_b                    35.569544721240675 
_cell_length_c                    38.71699341336938 
_cell_angle_alpha                 89.77689371311415 
_cell_angle_beta                  89.92516127748033 
_cell_angle_gamma                 89.43130603570141 
loop_ 
_atom_site_label 
_atom_site_type_symbol 
_atom_site_fract_x 
_atom_site_fract_y 
_atom_site_fract_z 
_atom_site_charge 
C1          C  0.74692175  0.14750229  0.70958180     0.02500
C2          C  0.74635861  0.10778818  0.70753180     0.02500
C3          C  0.76689583  0.08625770  0.72939595    -0.18000
C4          C  0.78930511  0.10354629  0.75202792     0.02500
C5          C  0.78984204  0.14333784  0.75401657     0.02500
C6          C  0.76814454  0.16481071  0.73331341    -0.18000
H7          H  0.76852847  0.19524922  0.73489467     0.04500
H8          H  0.76620278  0.05582320  0.72798489     0.04500
O9          O  0.62394788  0.27520638  0.38033733    -0.78300
C10         C  0.52386256  0.25364151  0.34143835     0.82800
O11         O  0.55233350  0.32647488  0.46768550    -0.79400
O12         O  0.48438370  0.21880683  0.44162687    -0.80900
O13         O  0.59137907  0.15360369  0.42754089    -0.80700
O14         O  0.64369017  0.22452325  0.40786133    -0.79300
Zn15       Zn  0.57541045  0.28006191  0.39415996     1.55700
O16         O  0.53744162  0.15539369  0.41283728    -0.80700
Cd17       Cd  0.60267200  0.20909042  0.43676689     1.59700
Cd18       Cd  0.54991395  0.26824417  0.47266326     1.59600
O19         O  0.61621272  0.21118827  0.48784230    -0.80700
O20         O  0.56342945  0.24291187  0.42831230    -1.91200
Cd21       Cd  0.52570323  0.21206664  0.41042155     1.59900
O22         O  0.58063234  0.25104863  0.51316893    -0.80600
O23         O  0.51256820  0.22722662  0.36032668    -0.79300
C24         C  0.55881505  0.34655889  0.44122204     0.83200
C25         C  0.64752465  0.25207506  0.38723469     0.82900
O26         O  0.54736614  0.27469923  0.35171822    -0.78200
C27         C  0.56420938  0.13736367  0.41992439     0.83700
O28         O  0.56714221  0.33221529  0.41236386    -0.78300
C29         C  0.60525412  0.22803406  0.51455076     0.83800
C30         C  0.47887014  0.23499530  0.47041796     0.84200
O31         O  0.50117861  0.25423084  0.48559793    -0.80800
O32         O  0.49857300  0.02359445  0.48444486    -0.78300
C33         C  0.60030937  0.00511313  0.52035160     0.82800
O34         O  0.57475813  0.07669923  0.39753583    -0.79400
O35         O  0.63553418  0.46196715  0.42648848    -0.80900
O36         O  0.53350712  0.40475405  0.42756496    -0.80700
O37         O  0.47959695  0.47221464  0.45564876    -0.79300
Zn38       Zn  0.54613603  0.03006479  0.46902656     1.55700
O39         O  0.58006669  0.40480171  0.45929381    -0.80700
Cd40       Cd  0.52008059  0.46111312  0.42403661     1.59700
Cd41       Cd  0.57503637  0.01888199  0.39116866     1.59600
O42         O  0.50529596  0.47174264  0.37380242    -0.80700
O43         O  0.55817057  0.99348308  0.43422611    -1.91200
Cd44       Cd  0.59380438  0.46084322  0.45743581     1.59900
O45         O  0.54587092  0.50689457  0.35140491    -0.80600
O46         O  0.60751054  0.47943079  0.50575912    -0.79300
C47         C  0.56308986  0.09653913  0.42214791     0.83200
C48         C  0.47457955  0.00211345  0.47640854     0.82900
O49         O  0.57613069  0.02644112  0.51103036    -0.78200
C50         C  0.55700369  0.38753667  0.44343618     0.83700
O51         O  0.55086245  0.08211509  0.44946327    -0.78300
C52         C  0.51859772  0.48906962  0.34849648     0.83800
C53         C  0.64278840  0.47842681  0.39823888     0.84200
O54         O  0.62288487  0.50128394  0.38321612    -0.80800
C55         C  0.28316535  0.11113983  0.60804272     0.02500
C56         C  0.27967850  0.15066207  0.60439137     0.02500
C57         C  0.25590356  0.17010217  0.62415030    -0.18000
C58         C  0.23607092  0.15113613  0.64819477     0.02500
C59         C  0.24067411  0.11191342  0.65325383     0.02500
C60         C  0.26375813  0.09230048  0.63267718    -0.18000
H61         H  0.26766703  0.06239632  0.63685792     0.04500
H62         H  0.25354103  0.20040789  0.62155136     0.04500
O63         O  0.99788921  0.22268367  0.88721674    -0.78300
C64         C  0.09952515  0.23648091  0.84847495     0.82800
O65         O  0.07547669  0.16810311  0.97199040    -0.79400
O66         O  0.13685376  0.28244266  0.94658113    -0.80900
O67         O  0.03247145  0.34153843  0.93704276    -0.80700
O68         O  0.97858351  0.27179943  0.91706956    -0.79300
Zn69       Zn  0.04586551  0.21520104  0.90106085     1.55700
O70         O  0.08232427  0.34014089  0.91112441    -0.80700
Cd71       Cd  0.02066039  0.28590312  0.94521811     1.59700
Cd72       Cd  0.07568898  0.22641670  0.97771441     1.59600
O73         O  0.00907299  0.28224977  0.99674309    -0.80700
O74         O  0.05947760  0.25229116  0.93440017    -1.91200
Cd75       Cd  0.09588006  0.28371848  0.91422276     1.59900
O76         O  0.04545704  0.24095667  0.01940876    -0.80600
O77         O  0.11031843  0.26393797  0.86619315    -0.79300
C78         C  0.06330647  0.14841841  0.94768846     0.83200
C79         C  0.97445030  0.24540264  0.89540424     0.82900
O80         O  0.07504469  0.21671408  0.85868251    -0.78200
C81         C  0.05728547  0.35802779  0.92336171     0.83700
O82         O  0.05057939  0.16319346  0.92072559    -0.78300
C83         C  0.02099898  0.26397657  0.02227013     0.83800
C84         C  0.14380823  0.26651929  0.97528515     0.84200
O85         O  0.12352532  0.24414473  0.99005155    -0.80800
O86         O  0.11595418  0.46852496  0.99328559    -0.78300
C87         C  0.01206912  0.49119224  0.01982721     0.82800
O88         O  0.05331781  0.41904437  0.89835696    -0.79400
O89         O  0.98679072  0.03083152  0.91953728    -0.80900
O90         O  0.09144561  0.09050119  0.94136676    -0.80700
O91         O  0.14071804  0.01901865  0.96882203    -0.79300
Zn92       Zn  0.06952272  0.46491916  0.97383706     1.55700
O93         O  0.03759166  0.08991402  0.95655410    -0.80700
Cd94       Cd  0.10366584  0.03433692  0.93437154     1.59700
Cd95       Cd  0.05097766  0.47747541  0.89374802     1.57600
O96         O  0.12333810  0.02948024  0.88535615    -0.80700
O97         O  0.06121441  0.50260294  0.93893601    -1.91200
Cd98       Cd  0.02498051  0.03354886  0.95495653     1.59900
O99         O  0.08713640  0.99429465  0.85613000    -0.80600
O100        O  0.00662338  0.01517059  0.00229040    -0.79300
C101        C  0.05836688  0.39896752  0.92521445     0.83200
C102        C  0.14020977  0.49102046  0.98950566     0.82900
O103        O  0.03661470  0.46971040  0.01240264    -0.78200
C104        C  0.06440784  0.10740320  0.94958310     0.83700
O105        O  0.06423390  0.41330936  0.95457555    -0.78300
C106        C  0.11358741  0.01396329  0.85759210     0.83800
C107        C  0.98310183  0.01520870  0.89026500     0.84200
O108        O  0.00548184  0.99388563  0.87703456    -0.80800
C109        C  0.39228071  0.39560038  0.14604993     0.02500
C110        C  0.39067043  0.35583580  0.14468283     0.02500
C111        C  0.36748896  0.33881251  0.12265023    -0.18000
C112        C  0.34522121  0.36070081  0.10290198     0.02500
C113        C  0.34759428  0.40040548  0.10379453     0.02500
C114        C  0.37117147  0.41730181  0.12511317    -0.18000
H115        H  0.37173324  0.44772232  0.12692566     0.04500
H116        H  0.36559137  0.30843169  0.12226537     0.04500
C117        C  0.84190296  0.35637683  0.26169394     0.02500
C118        C  0.84135144  0.39601591  0.26455044     0.02500
C119        C  0.86427877  0.41749871  0.24595314    -0.18000
C120        C  0.88664888  0.40039346  0.22309513     0.02500
C121        C  0.88680083  0.36082806  0.21962291     0.02500
C122        C  0.86526848  0.33911115  0.23987263    -0.18000
H123        H  0.86507503  0.30881468  0.23679912     0.04500
H124        H  0.86367609  0.44790373  0.24810316     0.04500
C125        C  0.96951005  0.43898597  0.09258593    -0.11200
C126        C  0.96080185  0.46853170  0.11469186     0.15400
C127        C  0.96799558  0.50591224  0.10511457     0.02300
C128        C  0.98376711  0.51285885  0.07342830    -0.15500
C129        C  0.99289351  0.48314266  0.05144866    -0.10300
C130        C  0.98490444  0.44585545  0.06093481     0.09000
C131        C  0.94195538  0.45874402  0.14605961     0.10000
S132        S  0.95774273  0.54567714  0.13202979    -0.24600
H133        H  0.98975052  0.54150743  0.06630942     0.20300
S134        S  0.99181056  0.40597659  0.03305987    -0.30300
H135        H  0.96321634  0.41036002  0.09960322     0.10600
C136        C  0.90683587  0.46099184  0.14652449     0.03800
C137        C  0.88938231  0.44402655  0.17362772    -0.12600
C138        C  0.90642645  0.42451455  0.19986739    -0.08300
C139        C  0.94161671  0.42537406  0.20103433     0.07300
C140        C  0.95906566  0.44188618  0.17372805    -0.13400
S141        S  0.88812032  0.96805742  0.10962792    -0.30300
H142        H  0.86231663  0.44374718  0.17324609     0.11500
S143        S  0.96548750  0.40547988  0.23620271    -0.27400
H144        H  0.98614225  0.44063726  0.17347773     0.08700
H145        H  0.98489390  0.42551272  0.00217785     0.27200
H146        H  0.85594065  0.96079990  0.12250683     0.22000
H147        H  0.93993315  0.40789922  0.26106205     0.27300
H148        H  0.95840582  0.52622487  0.16368378     0.16100
C149        C  0.29034954  0.44081485  0.03531814    -0.11200
C150        C  0.26641173  0.45903200  0.05600556     0.15400
C151        C  0.27223176  0.46263517  0.09180783     0.02300
C152        C  0.30010215  0.44500374  0.10648206    -0.15500
C153        C  0.32288685  0.42477702  0.08602266    -0.10300
C154        C  0.31900495  0.42469304  0.04983080     0.09000
C155        C  0.23411207  0.46991712  0.04027194     0.10000
S156        S  0.24931653  0.98470372  0.11863947    -0.24600
H157        H  0.30330518  0.44569555  0.13425880     0.20300
S158        S  0.34934123  0.40411336  0.02096880    -0.30300
H159        H  0.28626870  0.43827556  0.00777680     0.10600
C160        C  0.23203574  0.49504888  0.01216657     0.03800
C161        C  0.20097945  0.50193010  0.99666364    -0.12600
C162        C  0.17168762  0.48478465  0.00900868    -0.08300
C163        C  0.17385438  0.46108168  0.03844921     0.07300
C164        C  0.20500908  0.45321888  0.05299560    -0.13400
S165        S  0.26870427  0.51896635  0.99641681    -0.30300
H166        H  0.19968722  0.52043592  0.97443280     0.11500
S167        S  0.13815369  0.44086075  0.05969955    -0.27400
H168        H  0.20657933  0.43404195  0.07476594     0.08700
H169        H  0.37673393  0.40753306  0.04340171     0.27200
H170        H  0.25303132  0.53849618  0.96914653     0.22000
H171        H  0.11909986  0.47431715  0.05839318     0.27300
H172        H  0.23811321  0.01063563  0.09358767     0.16100
C173        C  0.91674758  0.32471521  0.13283254    -0.11200
C174        C  0.94693909  0.30722402  0.14212860     0.15400
C175        C  0.95670289  0.30630430  0.17710989     0.02300
C176        C  0.93636638  0.32359052  0.20191172    -0.15500
C177        C  0.90653842  0.34187927  0.19248341    -0.10300
C178        C  0.89621965  0.34169283  0.15755046     0.09000
C179        C  0.96843394  0.29246148  0.11423829     0.10000
S180        S  0.99482995  0.28394051  0.19157519    -0.24600
H181        H  0.94397798  0.32309470  0.22876718     0.20300
S182        S  0.85741239  0.36211480  0.14221260    -0.30300
H183        H  0.90926627  0.32537984  0.10592940     0.10600
C184        C  0.95969870  0.26009266  0.09554001     0.03800
C185        C  0.97869735  0.24971132  0.06658463    -0.12600
C186        C  0.00621149  0.27107289  0.05626745    -0.08300
C187        C  0.01571608  0.30255266  0.07590307     0.07300
C188        C  0.99661757  0.31304093  0.10457216    -0.13400
S189        S  0.92387965  0.23270593  0.10805434    -0.30300
H190        H  0.97137307  0.22589304  0.05110707     0.11500
S191        S  0.05071254  0.33170863  0.06449131    -0.27400
H192        H  0.00315838  0.33804727  0.11886680     0.08700
H193        H  0.84242629  0.37028816  0.17401395     0.27200
H194        H  0.92791334  0.20443845  0.08304070     0.22000
H195        H  0.06971877  0.30331926  0.04841420     0.27300
H196        H  0.99633663  0.25669019  0.16540561     0.16100
C197        C  0.22191287  0.26434127  0.03195761    -0.11200
C198        C  0.23324236  0.30121960  0.02751810     0.15400
C199        C  0.21627907  0.32561964  0.00454992     0.02300
C200        C  0.18769921  0.31313839  0.98762138    -0.15500
C201        C  0.17556869  0.27653033  0.99261090    -0.10300
C202        C  0.19331716  0.25160704  0.01469663     0.09000
C203        C  0.26177987  0.31409882  0.04843832     0.10000
S204        S  0.22916923  0.37334902  0.99643933    -0.24600
H205        H  0.17442408  0.33261230  0.97084085     0.20300
S206        S  0.18051266  0.20340620  0.02048520    -0.30300
H207        H  0.23527194  0.24579143  0.04947642     0.10600
C208        C  0.25677488  0.33717454  0.07746658     0.03800
C209        C  0.28449732  0.35049256  0.09550849    -0.12600
C210        C  0.31724396  0.34219456  0.08458734    -0.08300
C211        C  0.32216026  0.31776575  0.05622071     0.07300
C212        C  0.29433444  0.30382381  0.03865785    -0.13400
S213        S  0.21507381  0.34962954  0.09152646    -0.30300
H214        H  0.28074764  0.36811103  0.11796275     0.11500
S215        S  0.36288093  0.30378310  0.04045249    -0.27400
H216        H  0.29807131  0.28573615  0.01648081     0.08700
H217        H  0.20764055  0.19173784  0.04109602     0.27200
H218        H  0.22458526  0.37490401  0.11750182     0.22000
H219        H  0.38082169  0.33464939  0.05274821     0.27300
H220        H  0.26339668  0.36733641  0.00252890     0.16100
C221        C  0.15851155  0.18222208  0.69664666    -0.11200
C222        C  0.17292371  0.20175357  0.72418893     0.15400
C223        C  0.20765211  0.20853127  0.72400210     0.02300
C224        C  0.22717167  0.19519154  0.69665478    -0.15500
C225        C  0.21315617  0.17313834  0.67059422    -0.10300
C226        C  0.17833396  0.16777599  0.66983959     0.09000
C227        C  0.15171498  0.21150783  0.75418195     0.10000
S228        S  0.22905803  0.23108077  0.75915298    -0.24600
H229        H  0.25398458  0.19902180  0.69737781     0.20300
S230        S  0.15926916  0.14221770  0.63499565    -0.30300
H231        H  0.13185616  0.17736223  0.69682377     0.10600
C232        C  0.14454108  0.24902055  0.76327596     0.03800
C233        C  0.12714432  0.25644018  0.79402196    -0.12600
C234        C  0.11626656  0.22704122  0.81549990    -0.08300
C235        C  0.12261819  0.18934686  0.80565412     0.07300
C236        C  0.14013342  0.18210994  0.77502375    -0.13400
S237        S  0.15713361  0.28728491  0.73552091    -0.30300
H238        H  0.12185754  0.28523837  0.80135673     0.11500
S239        S  0.11099140  0.15022466  0.83301215    -0.27400
H240        H  0.14591248  0.15341823  0.76771236     0.08700
H241        H  0.12692323  0.14109256  0.64917657     0.27200
H242        H  0.14679191  0.31658545  0.75749263     0.22000
H243        H  0.12133694  0.12135697  0.81060509     0.27300
H244        H  0.20897063  0.21628046  0.78561967     0.16100
C245        C  0.18486669  0.04701421  0.70599908    -0.11200
C246        C  0.18912157  0.06191128  0.73922568     0.15400
C247        C  0.21223913  0.09110931  0.74418084     0.02300
C248        C  0.23026024  0.10468188  0.71599013    -0.15500
C249        C  0.22401406  0.09207771  0.68229941    -0.10300
C250        C  0.20152652  0.06215596  0.67739706     0.09000
C251        C  0.16917041  0.04650207  0.76813960     0.10000
S252        S  0.21926885  0.60730833  0.78514598    -0.24600
H253        H  0.24846031  0.12650464  0.72019710     0.20300
S254        S  0.19239258  0.04221668  0.63569730    -0.30300
H255        H  0.16761643  0.02411596  0.70220433     0.10600
C256        C  0.13408881  0.05065423  0.76901541     0.03800
C257        C  0.11626922  0.03713562  0.79760595    -0.12600
C258        C  0.13290844  0.02079257  0.82584553    -0.08300
C259        C  0.16796111  0.01595786  0.82461127     0.07300
C260        C  0.18565984  0.02863499  0.79572485    -0.13400
S261        S  0.11223344  0.07586433  0.73513725    -0.30300
H262        H  0.08946998  0.04126170  0.79891218     0.11500
S263        S  0.18823927  0.49201714  0.85883239    -0.27400
H264        H  0.21257246  0.02518407  0.79497244     0.08700
H265        H  0.19901073  0.07434274  0.61578868     0.27200
H266        H  0.08061785  0.07625391  0.75103076     0.22000
H267        H  0.16192828  0.46951737  0.87081994     0.27300
H268        H  0.18638131  0.10898287  0.79796727     0.16100
C269        C  0.71733679  0.42628861  0.36184811    -0.11200
C270        C  0.73595417  0.45595482  0.34813042     0.15400
C271        C  0.72392872  0.49320620  0.35118101     0.02300
C272        C  0.69342154  0.49982928  0.36776144    -0.15500
C273        C  0.67495137  0.47005427  0.38173309    -0.10300
C274        C  0.68703092  0.43280330  0.37851988     0.09000
C275        C  0.76582261  0.44604255  0.32779633     0.10000
S276        S  0.74603321  0.53323269  0.33428839    -0.24600
H277        H  0.68412757  0.52844098  0.37000648     0.20300
S278        S  0.66402790  0.39215075  0.39271221    -0.30300
H279        H  0.72583720  0.39763069  0.35811946     0.10600
C280        C  0.79303653  0.42689942  0.34305695     0.03800
C281        C  0.81782541  0.41133471  0.32188932    -0.12600
C282        C  0.81626324  0.41559495  0.28595615    -0.08300
C283        C  0.79049089  0.43747106  0.27089642     0.07300
C284        C  0.76508530  0.45184222  0.29199868    -0.13400
S285        S  0.79627790  0.42275867  0.38944421    -0.30300
H286        H  0.83835824  0.39551108  0.33317336     0.11500
S287        S  0.78917163  0.44604187  0.22483534    -0.27400
H288        H  0.74405463  0.46671612  0.28061896     0.08700
H289        H  0.63254803  0.40620087  0.38255376     0.27200
H290        H  0.82495802  0.39959442  0.38989600     0.22000
H291        H  0.75843362  0.46553731  0.22429671     0.27300
H292        H  0.77817396  0.51715209  0.33661154     0.16100
C293        C  0.45159842  0.48806562  0.28012183    -0.11200
C294        C  0.46787042  0.46780813  0.25387765     0.15400
C295        C  0.50280599  0.46127278  0.25652948     0.02300
C296        C  0.51946236  0.47154406  0.28680869    -0.15500
C297        C  0.50203563  0.48744067  0.31465558    -0.10300
C298        C  0.46808935  0.49735939  0.31060725     0.09000
C299        C  0.44716567  0.45122025  0.22612093     0.10000
S300        S  0.52769675  0.43859302  0.22350254    -0.24600
H301        H  0.54577052  0.46461231  0.28959636     0.20300
S302        S  0.44417882  0.52081836  0.34374347    -0.30300
H303        H  0.42524070  0.49486963  0.27761107     0.10600
C304        C  0.42125424  0.42579265  0.23414704     0.03800
C305        C  0.40395826  0.40843682  0.20738677    -0.12600
C306        C  0.41209000  0.41511897  0.17274097    -0.08300
C307        C  0.43708087  0.44151027  0.16461905     0.07300
C308        C  0.45379304  0.45988449  0.19136425    -0.13400
S309        S  0.41052621  0.41398893  0.27832526    -0.30300
H310        H  0.38397639  0.38922584  0.21341746     0.11500
S311        S  0.44941119  0.45216354  0.12087806    -0.27400
H312        H  0.47304628  0.47999991  0.18505944     0.08700
H313        H  0.46440626  0.03207619  0.35598208     0.27200
H314        H  0.38381863  0.38992422  0.27094911     0.22000
H315        H  0.44209945  0.41662996  0.10719938     0.27300
H316        H  0.50292228  0.41495333  0.21047665     0.16100
C317        C  0.38783772  0.03895919  0.49649876    -0.11200
C318        C  0.38562981  0.03063922  0.53185986     0.15400
C319        C  0.41048655  0.00768385  0.54730204     0.02300
C320        C  0.43881849  0.99741574  0.52817867    -0.15500
C321        C  0.44225971  0.00838594  0.49355267    -0.10300
C322        C  0.41603678  0.02850065  0.47726257     0.09000
C323        C  0.35951838  0.05006730  0.55252573     0.10000
S324        S  0.40608218  0.47851740  0.58903315    -0.24600
H325        H  0.45726725  0.47166102  0.53816223     0.20300
S326        S  0.41766121  0.04348794  0.43269395    -0.30300
H327        H  0.36842767  0.05580095  0.48431924     0.10600
C328        C  0.36793676  0.07858990  0.57611812     0.03800
C329        C  0.34258879  0.09711627  0.59448626    -0.12600
C330        C  0.30879098  0.08946008  0.58845974    -0.08300
C331        C  0.30035280  0.06104010  0.56461112     0.07300
C332        C  0.32580106  0.04153825  0.54711421    -0.13400
S333        S  0.41081925  0.09272309  0.58193319    -0.30300
H334        H  0.34910232  0.11784800  0.61359193     0.11500
S335        S  0.25782076  0.04829278  0.55511854    -0.27400
H336        H  0.31929427  0.01991647  0.52876058     0.08700
H337        H  0.45243309  0.04785718  0.43047843     0.27200
H338        H  0.40408528  0.12429879  0.60267193     0.22000
H339        H  0.24306499  0.08326411  0.56275105     0.27300
H340        H  0.37286124  0.99367433  0.59393806     0.16100
C341        C  0.75928555  0.31304420  0.28690556    -0.11200
C342        C  0.76788161  0.29412764  0.31748145     0.15400
C343        C  0.80178291  0.29220161  0.32759998     0.02300
C344        C  0.82566030  0.31238795  0.30879928    -0.15500
C345        C  0.81660726  0.33280811  0.27911497    -0.10300
C346        C  0.78336305  0.33133715  0.26715954     0.09000
C347        C  0.74024579  0.27897242  0.33866161     0.10000
S348        S  0.81605528  0.26460449  0.36396594    -0.24600
H349        H  0.85138703  0.31238804  0.31743793     0.20300
S350        S  0.77013219  0.35163296  0.22673390    -0.30300
H351        H  0.73348972  0.31373263  0.27844410     0.10600
C352        C  0.73088878  0.29595540  0.37014919     0.03800
C353        C  0.70097143  0.28546560  0.38617604    -0.12600
C354        C  0.68040614  0.25819408  0.37152647    -0.08300
C355        C  0.69048963  0.23993310  0.34090355     0.07300
C356        C  0.72011470  0.25079307  0.32462368    -0.13400
S357        S  0.75588309  0.33250397  0.38898746    -0.30300
H358        H  0.69299843  0.29927528  0.40970722     0.11500
S359        S  0.66560577  0.20467444  0.32000818    -0.27400
H360        H  0.72707753  0.23798720  0.30026743     0.08700
H361        H  0.80024654  0.34409496  0.20940390     0.27200
H362        H  0.73380417  0.34195246  0.41594395     0.22000
H363        H  0.65092618  0.19017750  0.35012960     0.27300
H364        H  0.78948953  0.23905206  0.36389409     0.16100
C365        C  0.41934906  0.29194527  0.21809207    -0.11200
C366        C  0.45401739  0.29698471  0.21671608     0.15400
C367        C  0.46790893  0.31734911  0.18883193     0.02300
C368        C  0.44670616  0.33488087  0.16486447    -0.15500
C369        C  0.41185022  0.33214335  0.16769939    -0.10300
C370        C  0.39810575  0.30952584  0.19418583     0.09000
C371        C  0.47407823  0.28524716  0.24716241     0.10000
S372        S  0.51229704  0.32336779  0.18322599    -0.24600
H373        H  0.45741883  0.35178891  0.14438840     0.20300
S374        S  0.35375626  0.30426474  0.20075257    -0.30300
H375        H  0.40858052  0.27629676  0.23936913     0.10600
C376        C  0.48801936  0.31226337  0.26926302     0.03800
C377        C  0.50507483  0.30067897  0.29890602    -0.12600
C378        C  0.50812261  0.26253465  0.30776068    -0.08300
C379        C  0.49441974  0.23527411  0.28546991     0.07300
C380        C  0.47729770  0.24695502  0.25560022    -0.13400
S381        S  0.48199043  0.36179075  0.26149736    -0.30300
H382        H  0.51483739  0.32173346  0.31621288     0.11500
S383        S  0.49855647  0.18545875  0.29313593    -0.27400
H384        H  0.46647437  0.22609117  0.23875698     0.08700
H385        H  0.34464281  0.34098308  0.19079146     0.27200
H386        H  0.50379266  0.37488840  0.28714145     0.22000
H387        H  0.53088210  0.18742411  0.30718914     0.27300
H388        H  0.52211264  0.29115524  0.20190227     0.16100
C389        C  0.32864732  0.18744234  0.52786782    -0.11200
C390        C  0.35726919  0.20089702  0.54463471     0.15400
C391        C  0.35736081  0.20296524  0.58113514     0.02300
C392        C  0.32989109  0.18984213  0.59974944    -0.15500
C393        C  0.30314055  0.17256934  0.58297432    -0.10300
C394        C  0.30190116  0.17264098  0.54661690     0.09000
C395        C  0.38706012  0.21070323  0.52359050     0.10000
S396        S  0.39264844  0.21892857  0.60577699    -0.24600
H397        H  0.33072134  0.18999959  0.62773012     0.20300
S398        S  0.26765062  0.15298348  0.52278472    -0.30300
H399        H  0.32778593  0.18697059  0.49990653     0.10600
C400        C  0.40244559  0.18397467  0.50168534     0.03800
C401        C  0.43147202  0.19353611  0.48366201    -0.12600
C402        C  0.44614138  0.22898629  0.48735595    -0.08300
C403        C  0.43021772  0.25611002  0.50852847     0.07300
C404        C  0.40084923  0.24674706  0.52618115    -0.13400
S405        S  0.38671719  0.13669149  0.49818479    -0.30300
H406        H  0.44371071  0.17256696  0.46774399     0.11500
S407        S  0.44561973  0.30318859  0.51371623    -0.27400
H408        H  0.38878142  0.26763849  0.54236399     0.08700
H409        H  0.24343267  0.15805664  0.54871639     0.27200
H410        H  0.40900535  0.12400405  0.47255590     0.22000
H411        H  0.45652665  0.30694687  0.47932805     0.27300
H412        H  0.41694858  0.20220333  0.58436864     0.16100
C413        C  0.86159044  0.04001420  0.77955758    -0.11200
C414        C  0.86091052  0.04499728  0.81544574     0.15400
C415        C  0.83371637  0.06448964  0.83052755     0.02300
C416        C  0.81008596  0.08221197  0.80929242    -0.15500
C417        C  0.81232551  0.07994176  0.77317069    -0.10300
C418        C  0.83741775  0.05674962  0.75827694     0.09000
C419        C  0.89145203  0.03580583  0.83548926     0.10000
S420        S  0.82822419  0.06817260  0.87663882    -0.24600
H421        H  0.79011183  0.09855749  0.82100276     0.20300
S422        S  0.84132262  0.04847536  0.71247270    -0.30300
H423        H  0.88224539  0.02480503  0.76781593     0.10600
C424        C  0.90468321  0.99899690  0.83804513     0.03800
C425        C  0.93498936  0.99293131  0.85561318    -0.12600
C426        C  0.95207960  0.02291670  0.87085965    -0.08300
C427        C  0.93883064  0.05978042  0.86783604     0.07300
C428        C  0.90882798  0.06568231  0.85031321    -0.13400
S429        S  0.87897655  0.46459821  0.81887426    -0.30300
H430        H  0.94179839  0.46686551  0.85708269     0.11500
S431        S  0.95961226  0.10082791  0.88424734    -0.27400
H432        H  0.89934550  0.09414183  0.84729557     0.08700
H433        H  0.82903259  0.08350640  0.70152443     0.27200
H434        H  0.90077575  0.43549791  0.82940186     0.22000
H435        H  0.99215243  0.08801901  0.87665695     0.27300
H436        H  0.84668562  0.03558325  0.88510527     0.16100
C437        C  0.90271340  0.24520991  0.83224449    -0.11200
C438        C  0.88426009  0.21465821  0.84481408     0.15400
C439        C  0.89377027  0.19748982  0.87637062     0.02300
C440        C  0.92199888  0.21039182  0.89375751    -0.15500
C441        C  0.94140128  0.23948012  0.88012636    -0.10300
C442        C  0.93116527  0.25777877  0.84949951     0.09000
C443        C  0.85891555  0.19814160  0.82173476     0.10000
S444        S  0.87273793  0.15756406  0.89495418    -0.24600
H445        H  0.93008023  0.19608985  0.91711357     0.20300
S446        S  0.95479474  0.29491386  0.82948789    -0.30300
H447        H  0.89574607  0.25822307  0.80790812     0.10600
C448        C  0.82442898  0.19857980  0.82925676     0.03800
C449        C  0.80224240  0.18078557  0.80657497    -0.12600
C450        C  0.81391458  0.16325370  0.77634507    -0.08300
C451        C  0.84827189  0.16460990  0.76822480     0.07300
C452        C  0.87032371  0.18129026  0.79123766    -0.13400
S453        S  0.80876642  0.22199783  0.86734552    -0.30300
H454        H  0.77578995  0.18020741  0.81240482     0.11500
S455        S  0.86570877  0.14647379  0.72869214    -0.27400
H456        H  0.89677711  0.18141784  0.78518309     0.08700
H457        H  0.96953319  0.30839361  0.85984079     0.27200
H458        H  0.77508552  0.21214536  0.86303592     0.22000
H459        H  0.83718142  0.15298266  0.70845327     0.27300
H460        H  0.85980978  0.14314115  0.86415532     0.16100
C461        C  0.70937956  0.07105416  0.62391860    -0.11200
C462        C  0.67963270  0.05505592  0.63582598     0.15400
C463        C  0.67288723  0.05452179  0.67166196     0.02300
C464        C  0.69525240  0.07154613  0.69446025    -0.15500
C465        C  0.72470803  0.08820634  0.68241074    -0.10300
C466        C  0.73219364  0.08697883  0.64674306     0.09000
C467        C  0.65653128  0.03952486  0.60976029     0.10000
S468        S  0.63636957  0.03275471  0.68993475    -0.24600
H469        H  0.68958306  0.07202962  0.72182607     0.20300
S470        S  0.77039041  0.10464831  0.62848595    -0.30300
H471        H  0.71491189  0.07099237  0.59650572     0.10600
C472        C  0.62664969  0.05816713  0.60060088     0.03800
C473        C  0.60802325  0.04518274  0.57247007    -0.12600
C474        C  0.61832595  0.01351235  0.55324020    -0.08300
C475        C  0.64713779  0.99325495  0.56452994     0.07300
C476        C  0.66616762  0.00703146  0.59192274    -0.13400
S477        S  0.61303822  0.09962991  0.62355603    -0.30300
H478        H  0.58584637  0.06068954  0.56480507     0.11500
S479        S  0.65239542  0.44779368  0.55570625    -0.27400
H480        H  0.68890178  0.99233048  0.59938976     0.08700
H481        H  0.78991352  0.09986034  0.65822622     0.27200
H482        H  0.58394747  0.10672733  0.60418704     0.22000
H483        H  0.61944778  0.43438065  0.55451232     0.27300
H484        H  0.63158334  0.00649722  0.66342390     0.16100
C485        C  0.65349842  0.18028283  0.58698217    -0.11200
C486        C  0.65871032  0.21044312  0.60939371     0.15400
C487        C  0.64477509  0.24601111  0.60159869     0.02300
C488        C  0.62664410  0.25083972  0.57093484    -0.15500
C489        C  0.62211697  0.22082910  0.54792633    -0.10300
C490        C  0.63512273  0.18485160  0.55654501     0.09000
C491        C  0.68026278  0.20321844  0.63958732     0.10000
S492        S  0.65005347  0.28639095  0.62899616    -0.24600
H493        H  0.61669534  0.27844908  0.56459329     0.20300
S494        S  0.62751451  0.14412730  0.52987705    -0.30300
H495        H  0.66421648  0.15307028  0.59340605     0.10600
C496        C  0.66781647  0.18431816  0.66877134     0.03800
C497        C  0.69024984  0.16824420  0.69239454    -0.12600
C498        C  0.72487499  0.17090323  0.68739508    -0.08300
C499        C  0.73719851  0.19335937  0.66000007     0.07300
C500        C  0.71466146  0.20904399  0.63627287    -0.13400
S501        S  0.62338159  0.17999411  0.67531874    -0.30300
H502        H  0.68091696  0.15224848  0.71415535     0.11500
S503        S  0.78101122  0.20205943  0.65261960    -0.27400
H504        H  0.72410866  0.22400297  0.61391018     0.08700
H505        H  0.64817545  0.11869304  0.54804880     0.27200
H506        H  0.62523065  0.15667568  0.70469625     0.22000
H507        H  0.79370333  0.16954652  0.66852278     0.27300
H508        H  0.65493480  0.26646587  0.66000577     0.16100
C509        C  0.74190609  0.65124409  0.71150442     0.02500
C510        C  0.74140590  0.61146365  0.71037856     0.02500
C511        C  0.76332865  0.59066984  0.73141350    -0.18000
C512        C  0.78695058  0.60871904  0.75220122     0.02500
C513        C  0.78740454  0.64856471  0.75335107     0.02500
C514        C  0.76428773  0.66931705  0.73364862    -0.18000
H515        H  0.76460734  0.69978523  0.73449586     0.04500
H516        H  0.76287209  0.56020944  0.73059973     0.04500
O517        O  0.62242113  0.77605991  0.37903523    -0.78300
C518        C  0.52345364  0.75115208  0.33861453     0.82800
O519        O  0.54985276  0.82714531  0.46515411    -0.79400
O520        O  0.48338547  0.71846825  0.44004948    -0.80900
O521        O  0.59064044  0.65429859  0.42694681    -0.80700
O522        O  0.64214802  0.72562520  0.40703905    -0.79300
Zn523      Zn  0.57351800  0.78041315  0.39177981     1.55700
O524        O  0.53660332  0.65554531  0.41280302    -0.80700
Cd525      Cd  0.60121572  0.71003748  0.43563904     1.59700
Cd526      Cd  0.54808890  0.76912755  0.47057519     1.59600
O527        O  0.61432205  0.71242909  0.48678946    -0.80700
O528        O  0.56195531  0.74358643  0.42650587    -1.91200
Cd529      Cd  0.52468850  0.71209263  0.40909497     1.59900
O530        O  0.57859830  0.75262669  0.51137956    -0.80600
O531        O  0.51199477  0.72593472  0.35872553    -0.79300
C532        C  0.55603890  0.84712791  0.43857412     0.83200
C533        C  0.64602571  0.75309391  0.38635471     0.82900
O534        O  0.54655689  0.77311937  0.34838655    -0.78200
C535        C  0.56345217  0.63776528  0.42003423     0.83700
O536        O  0.56436519  0.83275468  0.40968094    -0.78300
C537        C  0.60306996  0.72947592  0.51324748     0.83800
C538        C  0.47787479  0.73436222  0.46894867     0.84200
O539        O  0.49978399  0.75432370  0.48389691    -0.80800
O540        O  0.49686141  0.52322709  0.48365699    -0.78300
C541        C  0.59683000  0.50656610  0.52416173     0.82800
O542        O  0.57509677  0.57673971  0.39928913    -0.79400
O543        O  0.63483162  0.95959972  0.42112383    -0.80900
O544        O  0.53042903  0.90577947  0.42687350    -0.80700
O545        O  0.47762483  0.97652306  0.45362234    -0.79300
Zn546      Zn  0.54470980  0.53084689  0.47015953     1.55700
O547        O  0.57903722  0.90470000  0.45527271    -0.80700
Cd548      Cd  0.51835613  0.96257871  0.42258188     1.59700
Cd549      Cd  0.57514671  0.51898896  0.39393168     1.59600
O550        O  0.50428573  0.97186926  0.37196023    -0.80700
O551        O  0.55830833  0.49356839  0.43674192    -1.91200
Cd552      Cd  0.59395237  0.96005659  0.45340275     1.59900
O553        O  0.54485394  0.00666386  0.34905118    -0.80600
O554        O  0.60996358  0.97807168  0.50125513    -0.79300
C555        C  0.56246660  0.59697544  0.42305578     0.83200
C556        C  0.47458757  0.49912452  0.47668546     0.82900
O557        O  0.57309351  0.52780352  0.51348130    -0.78200
C558        C  0.55468405  0.88805710  0.44102065     0.83700
O559        O  0.54937680  0.58293480  0.45012379    -0.78300
C560        C  0.51761984  0.98861431  0.34634157     0.83800
C561        C  0.64251375  0.97670060  0.39333944     0.84200
O562        O  0.62316998  0.00094326  0.37923372    -0.80800
C563        C  0.28421121  0.60347355  0.60899247     0.02500
C564        C  0.28242570  0.64311837  0.60580603     0.02500
C565        C  0.25934483  0.66349216  0.62563420    -0.18000
C566        C  0.23850627  0.64515919  0.64915769     0.02500
C567        C  0.24136864  0.60566964  0.65357391     0.02500
C568        C  0.26382177  0.58521123  0.63304716    -0.18000
H569        H  0.26644453  0.55507365  0.63680828     0.04500
H570        H  0.25822496  0.69390525  0.62341408     0.04500
O571        O  0.99831711  0.72339131  0.88627912    -0.78300
C572        C  0.09925839  0.73502816  0.84637559     0.82800
O573        O  0.07757937  0.66863228  0.97029299    -0.79400
O574        O  0.13845868  0.78212287  0.94154417    -0.80900
O575        O  0.03411670  0.84126719  0.93717015    -0.80700
O576        O  0.97931717  0.77195829  0.91707070    -0.79300
Zn577      Zn  0.04609547  0.71521862  0.90009103     1.55700
O578        O  0.08240539  0.83973047  0.90813129    -0.80700
Cd579      Cd  0.02176910  0.78558051  0.94521137     1.59700
Cd580      Cd  0.07813827  0.72680285  0.97565814     1.59600
O581        O  0.01083351  0.78053465  0.99712098    -0.80700
O582        O  0.06041893  0.75236167  0.93291290    -1.91200
Cd583      Cd  0.09614971  0.78354609  0.91116486     1.59900
O584        O  0.04931836  0.74091284  0.01852460    -0.80600
O585        O  0.10959958  0.76338994  0.86310913    -0.79300
C586        C  0.06354317  0.64906058  0.94705693     0.83200
C587        C  0.97501033  0.74607042  0.89488155     0.82900
O588        O  0.07522349  0.71513133  0.85748970    -0.78200
C589        C  0.05821339  0.85766239  0.92197410     0.83700
O590        O  0.04970578  0.66379606  0.92069402    -0.78300
C591        C  0.02402078  0.76259093  0.02224112     0.83800
C592        C  0.14645965  0.76579896  0.96974881     0.84200
O593        O  0.12647385  0.74392901  0.98551469    -0.80800
O594        O  0.11948030  0.96723949  0.99176172    -0.78300
C595        C  0.01579833  0.98705402  0.02061221     0.82800
O596        O  0.05428038  0.91897609  0.89750207    -0.79400
O597        O  0.98566587  0.53302119  0.91678451    -0.80900
O598        O  0.09099884  0.59070127  0.94264083    -0.80700
O599        O  0.13847796  0.51840091  0.96832437    -0.79300
Zn600      Zn  0.07283662  0.96352136  0.97302570     1.55700
O601        O  0.03638357  0.59134880  0.95436598    -0.80700
Cd602      Cd  0.10168388  0.53457743  0.93441641     1.59700
Cd603      Cd  0.05290114  0.97753258  0.89345420     1.57600
O604        O  0.12085502  0.53038245  0.88522728    -0.80700
O605        O  0.06351979  0.00181003  0.93899464    -1.91200
Cd606      Cd  0.02291017  0.53541023  0.95323518     1.59900
O607        O  0.08500402  0.49420921  0.85656136    -0.80600
O608        O  0.00361247  0.51884436  0.00059484    -0.79300
C609        C  0.05985269  0.89853162  0.92402332     0.83200
C610        C  0.14312925  0.99070376  0.98893800     0.82900
O611        O  0.04070522  0.96658488  0.01226802    -0.78200
C612        C  0.06387528  0.60817292  0.94922328     0.83700
O613        O  0.06695486  0.91242839  0.95323924    -0.78300
C614        C  0.11110286  0.51440452  0.85769723     0.83800
C615        C  0.98203270  0.51632563  0.88801407     0.84200
O616        O  0.00387829  0.49344570  0.87610621    -0.80800
C617        C  0.39529943  0.88680306  0.14304274     0.02500
C618        C  0.39286662  0.84713109  0.14055228     0.02500
C619        C  0.36954331  0.83133320  0.11808067    -0.18000
C620        C  0.34788073  0.85418783  0.09864980     0.02500
C621        C  0.35044603  0.89383850  0.10081226     0.02500
C622        C  0.37418500  0.90958339  0.12284535    -0.18000
H623        H  0.37508394  0.93989086  0.12555116     0.04500
H624        H  0.36706894  0.80102532  0.11709007     0.04500
C625        C  0.84584969  0.85089083  0.26502550     0.02500
C626        C  0.84638100  0.89054661  0.26775878     0.02500
C627        C  0.86979359  0.91096885  0.24861683    -0.18000
C628        C  0.89141920  0.89277505  0.22550489     0.02500
C629        C  0.89050347  0.85318686  0.22243380     0.02500
C630        C  0.86854413  0.83253563  0.24311965    -0.18000
H631        H  0.86739009  0.80225700  0.24025550     0.04500
H632        H  0.86991435  0.94139664  0.25026701     0.04500
C633        C  0.97605720  0.93090991  0.09287736    -0.11200
C634        C  0.96511165  0.95955249  0.11495457     0.15400
C635        C  0.96998318  0.99750339  0.10554452     0.02300
C636        C  0.98575786  0.00591357  0.07416625    -0.15500
C637        C  0.99704578  0.97717838  0.05215512    -0.10300
C638        C  0.99127347  0.93922649  0.06138357     0.09000
C639        C  0.94619429  0.94830944  0.14594406     0.10000
S640        S  0.95651864  0.03627402  0.13221912    -0.24600
H641        H  0.98990027  0.03505606  0.06725006     0.20300
S642        S  0.00049435  0.90016020  0.03321099    -0.30300
H643        H  0.97147339  0.90178803  0.09966605     0.10600
C644        C  0.91103050  0.94927424  0.14608736     0.03800
C645        C  0.89381153  0.93340174  0.17392627    -0.12600
C646        C  0.91105884  0.91574852  0.20110026    -0.08300
C647        C  0.94628015  0.91684152  0.20193874     0.07300
C648        C  0.96350445  0.93266774  0.17408387    -0.13400
S649        S  0.88420108  0.48246911  0.11114814    -0.30300
H650        H  0.86676316  0.93277677  0.17366405     0.11500
S651        S  0.97054573  0.89821519  0.23740462    -0.27400
H652        H  0.99059265  0.93213798  0.17395960     0.08700
H653        H  0.99186071  0.91929412  0.00256821     0.27200
H654        H  0.85226672  0.48014591  0.12617464     0.22000
H655        H  0.94509565  0.90055170  0.26236687     0.27300
H656        H  0.95796894  0.01693311  0.16390309     0.16100
C657        C  0.29287780  0.93611484  0.03311797    -0.11200
C658        C  0.26947138  0.95482739  0.05410484     0.15400
C659        C  0.27590567  0.95814042  0.08984500     0.02300
C660        C  0.30365491  0.93973535  0.10415101    -0.15500
C661        C  0.32593620  0.91910693  0.08339542    -0.10300
C662        C  0.32151632  0.91936079  0.04721887     0.09000
C663        C  0.23717161  0.96694027  0.03871818     0.10000
S664        S  0.24455823  0.48825916  0.12023867    -0.24600
H665        H  0.30717766  0.94026181  0.13188247     0.20300
S666        S  0.35120753  0.89853877  0.01779483    -0.30300
H667        H  0.28847253  0.93383430  0.00562350     0.10600
C668        C  0.23538956  0.99202016  0.01047858     0.03800
C669        C  0.20428519  0.00006916  0.99537055    -0.12600
C670        C  0.17467709  0.98422811  0.00830258    -0.08300
C671        C  0.17651310  0.96097308  0.03804521     0.07300
C672        C  0.20764485  0.95174691  0.05209978    -0.13400
S673        S  0.27250933  0.01444920  0.99404037    -0.30300
H674        H  0.20316336  0.01828557  0.97295747     0.11500
S675        S  0.14032424  0.94328244  0.06036874    -0.27400
H676        H  0.20884356  0.93280440  0.07402434     0.08700
H677        H  0.37889048  0.90127051  0.03993303     0.27200
H678        H  0.25694964  0.03469890  0.96714068     0.22000
H679        H  0.12178064  0.97692717  0.05691489     0.27300
H680        H  0.23280115  0.51366969  0.09501305     0.16100
C681        C  0.91895860  0.81464283  0.13579634    -0.11200
C682        C  0.95002349  0.79876195  0.14452384     0.15400
C683        C  0.96050310  0.79903696  0.17932025     0.02300
C684        C  0.94023172  0.81624225  0.20428606    -0.15500
C685        C  0.90970831  0.83330178  0.19529957    -0.10300
C686        C  0.89852886  0.83157762  0.16068197     0.09000
C687        C  0.97176751  0.78518351  0.11612944     0.10000
S688        S  0.99945353  0.77825204  0.19338096    -0.24600
H689        H  0.94851045  0.81676980  0.23092308     0.20300
S690        S  0.85873332  0.84993577  0.14588096    -0.30300
H691        H  0.91083070  0.81445669  0.10909071     0.10600
C692        C  0.96267834  0.75444313  0.09536166     0.03800
C693        C  0.98139894  0.74618873  0.06562750    -0.12600
C694        C  0.00927881  0.76769551  0.05667622    -0.08300
C695        C  0.01952666  0.79699527  0.07862838     0.07300
C696        C  0.00046253  0.80568390  0.10788204    -0.13400
S697        S  0.92692498  0.72621074  0.10637995    -0.30300
H698        H  0.97367645  0.72380674  0.04861804     0.11500
S699        S  0.05539373  0.82579365  0.06966657    -0.27400
H700        H  0.00743979  0.82935624  0.12377541     0.08700
H701        H  0.84675954  0.86518400  0.17680911     0.27200
H702        H  0.93126034  0.69931724  0.08016391     0.22000
H703        H  0.07353982  0.79871639  0.05092625     0.27300
H704        H  0.00127509  0.75075199  0.16744226     0.16100
C705        C  0.22622943  0.76018839  0.02318676    -0.11200
C706        C  0.23780411  0.79702551  0.01953378     0.15400
C707        C  0.22104149  0.82226147  0.99718121     0.02300
C708        C  0.19198100  0.81079521  0.98055808    -0.15500
C709        C  0.17922683  0.77446614  0.98540239    -0.10300
C710        C  0.19715039  0.74849824  0.00628088     0.09000
C711        C  0.26582279  0.80925121  0.04133238     0.10000
S712        S  0.23458889  0.86992796  0.98995853    -0.24600
H713        H  0.17864896  0.83093913  0.96447650     0.20300
S714        S  0.18379652  0.70035083  0.01107718    -0.30300
H715        H  0.23961504  0.74094943  0.04007886     0.10600
C716        C  0.26014743  0.83227680  0.07026410     0.03800
C717        C  0.28739447  0.84503848  0.08927907    -0.12600
C718        C  0.32031456  0.83639794  0.07928498    -0.08300
C719        C  0.32587954  0.81190942  0.05107562     0.07300
C720        C  0.29848884  0.79836910  0.03261262    -0.13400
S721        S  0.21820119  0.84540314  0.08300769    -0.30300
H722        H  0.28315202  0.86247686  0.11173806     0.11500
S723        S  0.36693498  0.79752697  0.03656661    -0.27400
H724        H  0.30267795  0.78025531  0.01055629     0.08700
H725        H  0.20973389  0.68831013  0.03309295     0.27200
H726        H  0.22729396  0.87145467  0.10849175     0.22000
H727        H  0.38440855  0.82894731  0.04843070     0.27300
H728        H  0.26871773  0.86314835  0.99606673     0.16100
C729        C  0.16121215  0.67878609  0.69646484    -0.11200
C730        C  0.17569341  0.69683786  0.72479898     0.15400
C731        C  0.21066881  0.70183417  0.72568506     0.02300
C732        C  0.23031922  0.68823959  0.69852565    -0.15500
C733        C  0.21605547  0.66776858  0.67152458    -0.10300
C734        C  0.18108071  0.66417977  0.66979071     0.09000
C735        C  0.15396883  0.70746925  0.75413654     0.10000
S736        S  0.23204683  0.72260962  0.76178493    -0.24600
H737        H  0.25725676  0.69066094  0.70001092     0.20300
S738        S  0.16185776  0.64073652  0.63379021    -0.30300
H739        H  0.13436902  0.67533197  0.69582184     0.10600
C740        C  0.14752295  0.74524797  0.76277072     0.03800
C741        C  0.12894818  0.75347674  0.79259352    -0.12600
C742        C  0.11630705  0.72465246  0.81372338    -0.08300
C743        C  0.12204976  0.68667687  0.80430336     0.07300
C744        C  0.14059333  0.67865005  0.77447104    -0.13400
S745        S  0.16280226  0.78284704  0.73572088    -0.30300
H746        H  0.12438531  0.78251267  0.79963939     0.11500
S747        S  0.10825127  0.64807479  0.83118467    -0.27400
H748        H  0.14568095  0.64973757  0.76736511     0.08700
H749        H  0.12907220  0.64127538  0.64690258     0.27200
H750        H  0.14882893  0.81264609  0.75485349     0.22000
H751        H  0.12232624  0.61883429  0.81148706     0.27300
H752        H  0.21018937  0.70939822  0.78743767     0.16100
C753        C  0.18187416  0.54408686  0.70511424    -0.11200
C754        C  0.18691863  0.55822819  0.73850763     0.15400
C755        C  0.21165169  0.58559127  0.74386575     0.02300
C756        C  0.23065080  0.59796243  0.71597678    -0.15500
C757        C  0.22372147  0.58636002  0.68216083    -0.10300
C758        C  0.19948285  0.55835054  0.67674662     0.09000
C759        C  0.16655466  0.54364324  0.76739676     0.10000
S760        S  0.21901542  0.11348746  0.78531739    -0.24600
H761        H  0.25007686  0.61831773  0.72048206     0.20300
S762        S  0.18933051  0.53979232  0.63474248    -0.30300
H763        H  0.16339891  0.52251419  0.70103066     0.10600
C764        C  0.13164311  0.54939565  0.76859298     0.03800
C765        C  0.11375679  0.53728943  0.79766041    -0.12600
C766        C  0.13023624  0.52069219  0.82587215    -0.08300
C767        C  0.16502388  0.51416407  0.82427090     0.07300
C768        C  0.18273193  0.52538393  0.79495754    -0.13400
S769        S  0.11022926  0.57483946  0.73455361    -0.30300
H770        H  0.08712746  0.54264273  0.79931737     0.11500
S771        S  0.19149612  0.99403508  0.85905851    -0.27400
H772        H  0.20949938  0.52066797  0.79391682     0.08700
H773        H  0.19888346  0.57107558  0.61503299     0.27200
H774        H  0.07819405  0.57414488  0.74949269     0.22000
H775        H  0.16574130  0.97031840  0.87032710     0.27300
H776        H  0.18619363  0.60545899  0.79718376     0.16100
C777        C  0.71554806  0.92200576  0.35585566    -0.11200
C778        C  0.73747412  0.95102924  0.34722197     0.15400
C779        C  0.72793807  0.98866771  0.35354883     0.02300
C780        C  0.69643845  0.99648415  0.36777804    -0.15500
C781        C  0.67463725  0.96735152  0.37675026    -0.10300
C782        C  0.68436568  0.92964812  0.37056464     0.09000
C783        C  0.76833087  0.94089601  0.32830484     0.10000
S784        S  0.75494643  0.02767461  0.34425397    -0.24600
H785        H  0.68921296  0.02543328  0.37267635     0.20300
S786        S  0.65759948  0.89012698  0.37918941    -0.30300
H787        H  0.72233277  0.89320332  0.34987606     0.10600
C788        C  0.79501138  0.92191216  0.34467904     0.03800
C789        C  0.82090340  0.90662039  0.32455699    -0.12600
C790        C  0.82099874  0.91105538  0.28852039    -0.08300
C791        C  0.79576635  0.93302501  0.27255567     0.07300
C792        C  0.76936963  0.94716625  0.29259461    -0.13400
S793        S  0.79631472  0.91806490  0.39115531    -0.30300
H794        H  0.84091071  0.89073394  0.33672551     0.11500
S795        S  0.79612454  0.94163300  0.22650026    -0.27400
H796        H  0.74885812  0.96215830  0.28037295     0.08700
H797        H  0.62753811  0.90886666  0.37089959     0.27200
H798        H  0.82552437  0.89583529  0.39298651     0.22000
H799        H  0.76713058  0.96425472  0.22528558     0.27300
H800        H  0.78512140  0.00781357  0.34920509     0.16100
C801        C  0.45177014  0.97797230  0.27735242    -0.11200
C802        C  0.47045960  0.96048201  0.25108226     0.15400
C803        C  0.50578651  0.95932486  0.25399849     0.02300
C804        C  0.52082424  0.97210094  0.28440443    -0.15500
C805        C  0.50155207  0.98518489  0.31223554    -0.10300
C806        C  0.46675287  0.98972556  0.30797248     0.09000
C807        C  0.45182617  0.94134272  0.22304982     0.10000
S808        S  0.53351067  0.94067845  0.22127562    -0.24600
H809        H  0.54766006  0.96917295  0.28732871     0.20300
S810        S  0.43995055  0.00920747  0.34098279    -0.30300
H811        H  0.42488290  0.98062452  0.27472940     0.10600
C812        C  0.42844481  0.91301650  0.23098189     0.03800
C813        C  0.41030787  0.89642735  0.20441616    -0.12600
C814        C  0.41637698  0.90511578  0.16966629    -0.08300
C815        C  0.44023241  0.93290058  0.16157243     0.07300
C816        C  0.45680262  0.95157499  0.18833154    -0.13400
S817        S  0.42181471  0.89685136  0.27483276    -0.30300
H818        H  0.39091918  0.87674875  0.21089785     0.11500
S819        S  0.45096969  0.94539308  0.11778811    -0.27400
H820        H  0.47442879  0.97348493  0.18201206     0.08700
H821        H  0.47133763  0.53939374  0.35881862     0.27200
H822        H  0.40341118  0.86462518  0.26651470     0.22000
H823        H  0.44432173  0.90995796  0.10349935     0.27300
H824        H  0.51127993  0.91579503  0.20573765     0.16100
C825        C  0.38803181  0.53448220  0.49754752    -0.11200
C826        C  0.38507634  0.52274150  0.53199112     0.15400
C827        C  0.40929742  0.49794547  0.54606413     0.02300
C828        C  0.43772898  0.48889422  0.52666655    -0.15500
C829        C  0.44191112  0.50328667  0.49323145    -0.10300
C830        C  0.41632751  0.52532834  0.47808925     0.09000
C831        C  0.35927634  0.54121161  0.55353307     0.10000
S832        S  0.40787683  0.99160276  0.59145792    -0.24600
H833        H  0.45867149  0.98145840  0.54059868     0.20300
S834        S  0.41963356  0.54568394  0.43547332    -0.30300
H835        H  0.36915305  0.55292261  0.48646497     0.10600
C836        C  0.36819483  0.56752129  0.57900013     0.03800
C837        C  0.34309092  0.58628844  0.59741055    -0.12600
C838        C  0.30926730  0.58102759  0.58967401    -0.08300
C839        C  0.30030514  0.55470387  0.56409757     0.07300
C840        C  0.32544464  0.53494820  0.54647018    -0.13400
S841        S  0.41143730  0.57904094  0.58678107    -0.30300
H842        H  0.34977908  0.60573143  0.61760265     0.11500
S843        S  0.25759680  0.54512612  0.55230186    -0.27400
H844        H  0.31865327  0.51511910  0.52656085     0.08700
H845        H  0.44142096  0.51844350  0.42175767     0.27200
H846        H  0.40558000  0.60701178  0.61171114     0.22000
H847        H  0.24331118  0.57912193  0.56354389     0.27300
H848        H  0.37113934  0.48174715  0.59162352     0.16100
C849        C  0.76173615  0.81043130  0.28841596    -0.11200
C850        C  0.76881747  0.79289262  0.32007199     0.15400
C851        C  0.80223516  0.79100233  0.33180874     0.02300
C852        C  0.82717026  0.80965027  0.31316260    -0.15500
C853        C  0.81963749  0.82854535  0.28223447    -0.10300
C854        C  0.78685129  0.82730226  0.26901646     0.09000
C855        C  0.74016065  0.77879989  0.34035667     0.10000
S856        S  0.81461117  0.76539298  0.37007894    -0.24600
H857        H  0.85252513  0.80970841  0.32291507     0.20300
S858        S  0.77548352  0.84659636  0.22758713    -0.30300
H859        H  0.73630609  0.81119116  0.27883717     0.10600
C860        C  0.72964422  0.79678971  0.37097200     0.03800
C861        C  0.69910492  0.78694316  0.38597710    -0.12600
C862        C  0.67907979  0.75927512  0.37122587    -0.08300
C863        C  0.69023592  0.74002374  0.34151606     0.07300
C864        C  0.72047841  0.75030036  0.32619783    -0.13400
S865        S  0.75399386  0.83368506  0.39001356    -0.30300
H866        H  0.69029180  0.80144841  0.40883801     0.11500
S867        S  0.66614987  0.70412534  0.32050652    -0.27400
H868        H  0.72836074  0.73668293  0.30250912     0.08700
H869        H  0.80553824  0.83626135  0.21137693     0.27200
H870        H  0.73218998  0.84195573  0.41752333     0.22000
H871        H  0.64954948  0.69101505  0.35006815     0.27300
H872        H  0.78779471  0.74018085  0.37003219     0.16100
C873        C  0.41959326  0.78508411  0.21560203    -0.11200
C874        C  0.45432236  0.78426489  0.21089487     0.15400
C875        C  0.46791690  0.79843119  0.17981821     0.02300
C876        C  0.44719920  0.81801400  0.15670542    -0.15500
C877        C  0.41284345  0.82184854  0.16306196    -0.10300
C878        C  0.39863472  0.80333972  0.19188866     0.09000
C879        C  0.47546203  0.77421131  0.24105276     0.10000
S880        S  0.51155838  0.79352010  0.16896668    -0.24600
H881        H  0.45798645  0.83099397  0.13398114     0.20300
S882        S  0.35443190  0.80405728  0.20146908    -0.30300
H883        H  0.40893142  0.77357821  0.23905399     0.10600
C884        C  0.49400483  0.80192491  0.25826044     0.03800
C885        C  0.51059184  0.79289824  0.28898760    -0.12600
C886        C  0.50869331  0.75680981  0.30369944    -0.08300
C887        C  0.49097419  0.72862789  0.28571491     0.07300
C888        C  0.47420236  0.73780555  0.25497498    -0.13400
S889        S  0.49487626  0.84968613  0.24255769    -0.30300
H890        H  0.52405079  0.81470338  0.30233891     0.11500
S891        S  0.48918348  0.68042184  0.30000189    -0.27400
H892        H  0.45991760  0.71645724  0.24184786     0.08700
H893        H  0.34645582  0.83859988  0.18571016     0.27200
H894        H  0.50893599  0.86602706  0.27212072     0.22000
H895        H  0.52284820  0.67879156  0.31039015     0.27300
H896        H  0.51766254  0.76192651  0.19006721     0.16100
C897        C  0.33170674  0.67974157  0.52933183    -0.11200
C898        C  0.36040021  0.69293997  0.54602924     0.15400
C899        C  0.36147408  0.69315927  0.58248681     0.02300
C900        C  0.33425896  0.67965246  0.60125559    -0.15500
C901        C  0.30670857  0.66395972  0.58448777    -0.10300
C902        C  0.30504153  0.66488409  0.54812165     0.09000
C903        C  0.38934216  0.70445965  0.52476778     0.10000
S904        S  0.39765837  0.70761148  0.60653791    -0.24600
H905        H  0.33562175  0.67877233  0.62922069     0.20300
S906        S  0.27021623  0.64662906  0.52421861    -0.30300
H907        H  0.33057427  0.67995315  0.50135015     0.10600
C908        C  0.40625389  0.67821042  0.50374786     0.03800
C909        C  0.43400925  0.68956878  0.48462652    -0.12600
C910        C  0.44599498  0.72644389  0.48662709    -0.08300
C911        C  0.42880104  0.75293145  0.50739518     0.07300
C912        C  0.40065951  0.74165222  0.52618783    -0.13400
S913        S  0.39387578  0.62957782  0.50279850    -0.30300
H914        H  0.44735000  0.66908586  0.46907228     0.11500
S915        S  0.44098373  0.80144319  0.51047862    -0.27400
H916        H  0.38752240  0.76194948  0.54216502     0.08700
H917        H  0.24628458  0.65147626  0.55045261     0.27200
H918        H  0.42094579  0.61602668  0.48313576     0.22000
H919        H  0.45205108  0.80435478  0.47607796     0.27300
H920        H  0.42129016  0.69300213  0.58313165     0.16100
C921        C  0.86074762  0.54594988  0.77692431    -0.11200
C922        C  0.86107573  0.55054953  0.81283448     0.15400
C923        C  0.83442302  0.56997572  0.82893457     0.02300
C924        C  0.81021611  0.58799496  0.80860823    -0.15500
C925        C  0.81118608  0.58573972  0.77243069    -0.10300
C926        C  0.83585420  0.56272436  0.75657898     0.09000
C927        C  0.89186060  0.54038745  0.83198953     0.10000
S928        S  0.83006303  0.57265777  0.87522902    -0.24600
H929        H  0.79060454  0.60422926  0.82106698     0.20300
S930        S  0.83809989  0.55444658  0.71068009    -0.30300
H931        H  0.88096540  0.53067402  0.76447477     0.10600
C932        C  0.90322309  0.50293183  0.83567558     0.03800
C933        C  0.93322497  0.49558155  0.85343776    -0.12600
C934        C  0.95189176  0.52502494  0.86752789    -0.08300
C935        C  0.94088373  0.56256669  0.86265609     0.07300
C936        C  0.91099290  0.56971167  0.84529876    -0.13400
S937        S  0.88248752  0.95971681  0.82006245    -0.30300
H938        H  0.94509846  0.96469066  0.85812922     0.11500
S939        S  0.96449581  0.60277158  0.87652260    -0.27400
H940        H  0.90291657  0.59857909  0.84134209     0.08700
H941        H  0.82489814  0.58924786  0.70035519     0.27200
H942        H  0.90679384  0.93209611  0.82771117     0.22000
H943        H  0.99606742  0.58662910  0.86982210     0.27300
H944        H  0.84861105  0.53985769  0.88271423     0.16100
C945        C  0.90473273  0.74808954  0.82997725    -0.11200
C946        C  0.88542426  0.71782043  0.84167469     0.15400
C947        C  0.89402873  0.69987588  0.87316069     0.02300
C948        C  0.92207505  0.71182706  0.89147520    -0.15500
C949        C  0.94207574  0.74098124  0.87895789    -0.10300
C950        C  0.93281297  0.75995076  0.84834945     0.09000
C951        C  0.85926024  0.70300836  0.81845114     0.10000
S952        S  0.87181158  0.66019963  0.89052901    -0.24600
H953        H  0.92944457  0.69686545  0.91472277     0.20300
S954        S  0.95721905  0.79745447  0.83009608    -0.30300
H955        H  0.89847346  0.76177371  0.80576311     0.10600
C956        C  0.82490919  0.70478709  0.82651903     0.03800
C957        C  0.80181783  0.68743245  0.80450507    -0.12600
C958        C  0.81238986  0.66914817  0.77423442    -0.08300
C959        C  0.84658512  0.66989478  0.76514395     0.07300
C960        C  0.86957599  0.68600497  0.78761109    -0.13400
S961        S  0.81057593  0.72926992  0.86458861    -0.30300
H962        H  0.77551296  0.68753391  0.81105684     0.11500
S963        S  0.86264047  0.65169259  0.72504860    -0.27400
H964        H  0.89589734  0.68533572  0.78096791     0.08700
H965        H  0.96884608  0.81145056  0.86170996     0.27200
H966        H  0.77630237  0.72273854  0.85976197     0.22000
H967        H  0.83341433  0.65833391  0.70595929     0.27300
H968        H  0.86073237  0.64604676  0.85883214     0.16100
C969        C  0.70273173  0.57299088  0.62826570    -0.11200
C970        C  0.67320995  0.55726452  0.64093676     0.15400
C971        C  0.66698966  0.55748845  0.67686362     0.02300
C972        C  0.68984652  0.57481478  0.69903930    -0.15500
C973        C  0.71919372  0.59113624  0.68618701    -0.10300
C974        C  0.72596615  0.58922532  0.65038491     0.09000
C975        C  0.64988197  0.54122708  0.61538474     0.10000
S976        S  0.63042349  0.53659436  0.69588512    -0.24600
H977        H  0.68460539  0.57589729  0.72647963     0.20300
S978        S  0.76375366  0.60646712  0.63096872    -0.30300
H979        H  0.70779193  0.57241195  0.60075784     0.10600
C980        C  0.62150803  0.56127274  0.60393550     0.03800
C981        C  0.60370326  0.54830710  0.57524462    -0.12600
C982        C  0.61325738  0.51514484  0.55785529    -0.08300
C983        C  0.64003426  0.49333302  0.57176499     0.07300
C984        C  0.65845306  0.50716147  0.59958066    -0.13400
S985        S  0.60871121  0.60417991  0.62494651    -0.30300
H986        H  0.58287534  0.56491906  0.56570093     0.11500
S987        S  0.66154230  0.94990087  0.54546484    -0.27400
H988        H  0.67994872  0.49136609  0.60886501     0.08700
H989        H  0.78387635  0.60167936  0.66021479     0.27200
H990        H  0.58254643  0.61372184  0.60224496     0.22000
H991        H  0.62987806  0.93310086  0.54706861     0.27300
H992        H  0.62502472  0.50990563  0.66987231     0.16100
C993        C  0.64914927  0.68134260  0.58698578    -0.11200
C994        C  0.65365522  0.71139545  0.60969183     0.15400
C995        C  0.64012245  0.74702980  0.60149286     0.02300
C996        C  0.62308615  0.75206898  0.57021347    -0.15500
C997        C  0.61918695  0.72215982  0.54698202    -0.10300
C998        C  0.63170954  0.68606481  0.55596706     0.09000
C999        C  0.67501100  0.70446995  0.64009068     0.10000
S1000       S  0.64479750  0.78726413  0.62916199    -0.24600
H1001       H  0.61346778  0.77976197  0.56361417     0.20300
S1002       S  0.62470327  0.64544382  0.52896492    -0.30300
H1003       H  0.65984304  0.65415303  0.59355211     0.10600
C1004       C  0.66249148  0.68643178  0.66971292     0.03800
C1005       C  0.68491896  0.67113354  0.69382746    -0.12600
C1006       C  0.71958028  0.67392579  0.68893045    -0.08300
C1007       C  0.73184993  0.69562218  0.66100239     0.07300
C1008       C  0.70936913  0.71037596  0.63679558    -0.13400
S1009       S  0.61803795  0.68273548  0.67646938    -0.30300
H1010       H  0.67557002  0.65575889  0.71596434     0.11500
S1011       S  0.77560971  0.70444504  0.65353428    -0.27400
H1012       H  0.71885615  0.72476978  0.61412990     0.08700
H1013       H  0.64352725  0.61944177  0.54852094     0.27200
H1014       H  0.61980078  0.66030367  0.70642731     0.22000
H1015       H  0.78811440  0.67125006  0.66834981     0.27300
H1016       H  0.64727133  0.76707591  0.66033135     0.16100
loop_ 
_geom_bond_atom_site_label_1 
_geom_bond_atom_site_label_2 
_geom_bond_distance 
_geom_bond_site_symmetry_2 
_ccdc_geom_bond_type 
C1            C2   1.416       .  A
C1            C6   1.401       .  A
C1          C498   1.480       .  S
C2            C3   1.401       .  A
C2          C465   1.484       .  S
C3            C4   1.403       .  A
C3            H8   1.085       .  S
C4            C5   1.418       .  A
C4          C417   1.485       .  S
C5            C6   1.401       .  A
C5          C450   1.483       .  S
C6            H7   1.085       .  S
O9           C25   1.274       .  A
O9          Zn15   2.021       .  S
C10         C378   1.481       .  S
C10          O26   1.274       .  A
C10          O23   1.274       .  A
O11          C24   1.275       .  A
O11         Cd18   2.083       .  S
O12          C30   1.275       .  A
O12         Cd21   2.060       .  S
O13          C27   1.272       .  A
O13         Cd17   2.062       .  S
O14          C25   1.272       .  A
O14         Cd17   2.064       .  S
Zn15         O26   2.002       .  S
Zn15         O28   2.011       .  S
Zn15         O20   1.929       .  S
O16          C27   1.273       .  A
O16         Cd21   2.067       .  S
Cd17         O19   2.053       .  S
Cd17         O20   1.996       .  S
Cd18         O22   2.080       .  S
Cd18         O31   2.079       .  S
Cd18         O20   2.013       .  S
O19          C29   1.272       .  A
O20         Cd21   2.001       .  S
Cd21         O23   2.078       .  S
O22          C29   1.276       .  A
C24          C50   1.461       .  S
C24          O28   1.273       .  A
C25         C354   1.467       .  S
C27          C47   1.455       .  S
C29         C489   1.479       .  S
C30         C402   1.481       .  S
C30          O31   1.276       .  A
O32          C48   1.273       .  A
O32         Zn38   2.010       .  S
C33         C474   1.497       .  S
C33          O49   1.275       .  A
C33         O554   1.272   1_545  A
O34          C47   1.273       .  A
O34         Cd41   2.072       .  S
O35          C53   1.273       .  A
O35         Cd44   2.055       .  S
O36          C50   1.275       .  A
O36         Cd40   2.074       .  S
O37         C556   1.273       .  A
O37         Cd40   2.065       .  S
Zn38         O49   2.026       .  S
Zn38         O51   2.008       .  S
Zn38         O43   1.934   1_545  S
O39          C50   1.274       .  A
O39         Cd44   2.074       .  S
Cd40         O42   2.066       .  S
Cd40        O551   1.989       .  S
Cd41        O553   2.081       .  S
Cd41        O562   2.076       .  S
Cd41         O43   2.012   1_545  S
O42          C52   1.274       .  A
O43        Cd548   1.998       .  S
O43        Cd552   1.995       .  S
Cd44         O46   2.064       .  S
Cd44        O551   1.995       .  S
O45          C52   1.273       .  A
O45        Cd549   2.071       .  S
O46         C541   1.272       .  A
C47          O51   1.273       .  A
C48         C321   1.469       .  S
C48         O545   1.275   1_545  A
C52         C297   1.471       .  S
C53         C273   1.465       .  S
C53          O54   1.272       .  A
O54        Cd549   2.049       .  S
C55          C56   1.418       .  A
C55          C60   1.402       .  A
C55         C330   1.486       .  S
C56          C57   1.399       .  A
C56         C393   1.478       .  S
C57          C58   1.399       .  A
C57          H62   1.085       .  S
C58          C59   1.418       .  A
C58         C225   1.482       .  S
C59          C60   1.402       .  A
C59         C249   1.486       .  S
C60          H61   1.085       .  S
O63          C79   1.273       .  A
O63         Zn69   2.010   1_655  S
C64         C234   1.479       .  S
C64          O80   1.273       .  A
C64          O77   1.275       .  A
O65          C78   1.275       .  A
O65         Cd72   2.087       .  S
O66          C84   1.275       .  A
O66         Cd75   2.065       .  S
O67          C81   1.272       .  A
O67         Cd71   2.062       .  S
O68          C79   1.274       .  A
O68         Cd71   2.074   1_655  S
Zn69         O80   2.014       .  S
Zn69         O82   2.005       .  S
Zn69         O74   1.932       .  S
O70          C81   1.274       .  A
O70         Cd75   2.077       .  S
Cd71         O73   2.051       .  S
Cd71         O74   1.996       .  S
Cd72         O76   2.080   1_556  S
Cd72         O85   2.079       .  S
Cd72         O74   2.015       .  S
O73          C83   1.272   1_556  A
O74         Cd75   2.001       .  S
Cd75         O77   2.070       .  S
O76          C83   1.275       .  A
C78         C104   1.461       .  S
C78          O82   1.272       .  A
C79         C441   1.467       .  S
C81         C101   1.459       .  S
C83         C186   1.464       .  S
C84         C201   1.485       .  S
C84          O85   1.276       .  A
O86         C102   1.272       .  A
O86         Zn92   2.012       .  S
C87         C129   1.473   1_455  S
C87         O103   1.272       .  A
C87         O608   1.275       .  A
O88         C101   1.274       .  A
O88         Cd95   2.087       .  S
O89         C107   1.274       .  A
O89         Cd98   2.058   1_655  S
O90         C104   1.274       .  A
O90         Cd94   2.071       .  S
O91         C610   1.274   1_545  A
O91         Cd94   2.064       .  S
Zn92        O103   1.997   1_556  S
Zn92        O105   1.997       .  S
Zn92         O97   1.927       .  S
O93         C104   1.274       .  A
O93         Cd98   2.073       .  S
Cd94         O96   2.061       .  S
Cd94        O605   1.997       .  S
Cd95        O607   2.070       .  S
Cd95        O616   2.079       .  S
Cd95         O97   2.012       .  S
O96         C106   1.274       .  A
O97        Cd602   1.996       .  S
O97        Cd606   1.997       .  S
Cd98        O100   2.079   1_556  S
Cd98        O605   2.001       .  S
O99         C106   1.276   1_565  A
O99        Cd603   2.080       .  S
O100        C595   1.275   1_545  A
C101        O105   1.271       .  A
C102        C162   1.484   1_556  S
C102        O599   1.272       .  A
C106        C258   1.472       .  S
C107        C426   1.475       .  S
C107        O108   1.276   1_645  A
O108       Cd603   2.079       .  S
C109        C110   1.418       .  A
C109        C114   1.397       .  A
C109        C306   1.482       .  S
C110        C111   1.405       .  A
C110        C369   1.485       .  S
C111        C112   1.403       .  A
C111        H116   1.084       .  S
C112        C113   1.417       .  A
C112        C210   1.487       .  S
C113        C114   1.397       .  A
C113        C153   1.478       .  S
C114        H115   1.085       .  S
C117        C118   1.415       .  A
C117        C122   1.399       .  A
C117        C345   1.481       .  S
C118        C119   1.397       .  A
C118        C282   1.473       .  S
C119        C120   1.395       .  A
C119        H124   1.085       .  S
C120        C121   1.414       .  A
C120        C138   1.476       .  S
C121        C122   1.400       .  A
C121        C177   1.475       .  S
C122        H123   1.085       .  S
C125        C126   1.399       .  A
C125        C130   1.393       .  A
C125        H135   1.085       .  S
C126        C127   1.411       .  A
C126        C131   1.471       .  S
C127        C128   1.401       .  A
C127        S132   1.804       .  S
C128        C129   1.405       .  A
C128        H133   1.084       .  S
C129        C130   1.414       .  A
C130        S134   1.805       .  S
C131        C136   1.407       .  A
C131        C140   1.402       .  A
S132        H148   1.405       .  S
S134        H145   1.407       .  S
C136        C137   1.398       .  A
C136        S649   1.806       .  S
C137        C138   1.402       .  A
C137        H142   1.084       .  S
C138        C139   1.410       .  A
C139        C140   1.397       .  A
C139        S143   1.803       .  S
C140        H144   1.084       .  S
S141        C644   1.807       .  S
S141        H146   1.407       .  S
S143        H147   1.406       .  S
C149        C150   1.403       .  A
C149        C154   1.395       .  A
C149        H159   1.083       .  S
C150        C151   1.412       .  A
C150        C155   1.478       .  S
C151        C152   1.395       .  A
C151        S664   1.804       .  S
C152        C153   1.402       .  A
C152        H157   1.084       .  S
C153        C154   1.410       .  A
C154        S158   1.801       .  S
C155        C160   1.408       .  A
C155        C164   1.401       .  A
S156        C659   1.804       .  S
S156        H172   1.407   1_565  S
S158        H169   1.406       .  S
C160        C161   1.400   1_554  A
C160        S165   1.808   1_554  S
C161        C162   1.409   1_556  A
C161        H166   1.083       .  S
C162        C163   1.417       .  A
C163        C164   1.394       .  A
C163        S167   1.803       .  S
C164        H168   1.084       .  S
S165        H170   1.407       .  S
S167        H171   1.408       .  S
C173        C174   1.401       .  A
C173        C178   1.396       .  A
C173        H183   1.084       .  S
C174        C175   1.410       .  A
C174        C179   1.475       .  S
C175        C176   1.398       .  A
C175        S180   1.803       .  S
C176        C177   1.402       .  A
C176        H181   1.084       .  S
C177        C178   1.415       .  A
C178        S182   1.808       .  S
C179        C184   1.410       .  A
C179        C188   1.401       .  A
S180        H196   1.406       .  S
S182        H193   1.399       .  S
C184        C185   1.402       .  A
C184        S189   1.806       .  S
C185        C186   1.401   1_655  A
C185        H190   1.083       .  S
C186        C187   1.412       .  A
C187        C188   1.397   1_455  A
C187        S191   1.805       .  S
C188        H192   1.084   1_655  S
S189        H194   1.407       .  S
S191        H195   1.405       .  S
C197        C198   1.402       .  A
C197        C202   1.406       .  A
C197        H207   1.083       .  S
C198        C199   1.410       .  A
C198        C203   1.479       .  S
C199        C200   1.396   1_554  A
C199        S204   1.806   1_554  S
C200        C201   1.407       .  A
C200        H205   1.084       .  S
C201        C202   1.416   1_556  A
C202        S206   1.807       .  S
C203        C208   1.407       .  A
C203        C212   1.402       .  A
S204        H220   1.405   1_556  S
S206        H217   1.407       .  S
C208        C209   1.400       .  A
C208        S213   1.807       .  S
C209        C210   1.406       .  A
C209        H214   1.083       .  S
C210        C211   1.415       .  A
C211        C212   1.402       .  A
C211        S215   1.806       .  S
C212        H216   1.084       .  S
S213        H218   1.407       .  S
S215        H219   1.403       .  S
C221        C222   1.403       .  A
C221        C226   1.402       .  A
C221        H231   1.083       .  S
C222        C223   1.413       .  A
C222        C227   1.478       .  S
C223        C224   1.397       .  A
C223        S228   1.804       .  S
C224        C225   1.402       .  A
C224        H229   1.084       .  S
C225        C226   1.409       .  A
C226        S230   1.804       .  S
C227        C232   1.408       .  A
C227        C236   1.401       .  A
S228        H244   1.406       .  S
S230        H241   1.407       .  S
C232        C233   1.403       .  A
C232        S237   1.806       .  S
C233        C234   1.406       .  A
C233        H238   1.083       .  S
C234        C235   1.416       .  A
C235        C236   1.400       .  A
C235        S239   1.810       .  S
C236        H240   1.083       .  S
S237        H242   1.407       .  S
S239        H243   1.406       .  S
C245        C246   1.404       .  A
C245        C250   1.401       .  A
C245        H255   1.084       .  S
C246        C247   1.412       .  A
C246        C251   1.481       .  S
C247        C248   1.395       .  A
C247        S760   1.805       .  S
C248        C249   1.404       .  A
C248        H253   1.083       .  S
C249        C250   1.414       .  A
C250        S254   1.805       .  S
C251        C256   1.411       .  A
C251        C260   1.403       .  A
S252        C755   1.805       .  S
S252        H776   1.405       .  S
S254        H265   1.403       .  S
C256        C257   1.402       .  A
C256        S261   1.808       .  S
C257        C258   1.402       .  A
C257        H262   1.083       .  S
C258        C259   1.413       .  A
C259        C260   1.399       .  A
C259        S771   1.804   1_545  S
C260        H264   1.083       .  S
S261        H266   1.407       .  S
S263        C767   1.804       .  S
S263        H267   1.406       .  S
H268        S760   1.405       .  S
C269        C270   1.400       .  A
C269        C274   1.391       .  A
C269        H279   1.082       .  S
C270        C271   1.411       .  A
C270        C275   1.471       .  S
C271        C272   1.397       .  A
C271        S276   1.804       .  S
C272        C273   1.404       .  A
C272        H277   1.084       .  S
C273        C274   1.412       .  A
C274        S278   1.805       .  S
C275        C280   1.408       .  A
C275        C284   1.401       .  A
S276        H292   1.406       .  S
S278        H289   1.407       .  S
C280        C281   1.398       .  A
C280        S285   1.806       .  S
C281        C282   1.400       .  A
C281        H286   1.083       .  S
C282        C283   1.411       .  A
C283        C284   1.398       .  A
C283        S287   1.809       .  S
C284        H288   1.083       .  S
S285        H290   1.407       .  S
S287        H291   1.407       .  S
C293        C294   1.404       .  A
C293        C298   1.396       .  A
C293        H303   1.085       .  S
C294        C295   1.419       .  A
C294        C299   1.486       .  S
C295        C296   1.401       .  A
C295        S300   1.808       .  S
C296        C297   1.401       .  A
C296        H301   1.085       .  S
C297        C298   1.409       .  A
C298        S302   1.802       .  S
C299        C304   1.416       .  A
C299        C308   1.405       .  A
S300        H316   1.402       .  S
S302        H821   1.406       .  S
C304        C305   1.396       .  A
C304        S309   1.812       .  S
C305        C306   1.400       .  A
C305        H310   1.082       .  S
C306        C307   1.413       .  A
C307        C308   1.401       .  A
C307        S311   1.803       .  S
C308        H312   1.084       .  S
S309        H314   1.406       .  S
S311        H315   1.406       .  S
H313        S810   1.407       .  S
C317        C318   1.402       .  A
C317        C322   1.400       .  A
C317        H327   1.084       .  S
C318        C319   1.413       .  A
C318        C323   1.483       .  S
C319        C320   1.400   1_545  A
C319        S832   1.804   1_545  S
C320        C321   1.402   1_565  A
C320        H833   1.084       .  S
C321        C322   1.412       .  A
C322        S326   1.805       .  S
C323        C328   1.411       .  A
C323        C332   1.403       .  A
S324        C827   1.804       .  S
S324        H848   1.406       .  S
H325        C828   1.084       .  S
S326        H337   1.405       .  S
C328        C329   1.399       .  A
C328        S333   1.808       .  S
C329        C330   1.403       .  A
C329        H334   1.081       .  S
C330        C331   1.415       .  A
C331        C332   1.402       .  A
C331        S335   1.805       .  S
C332        H336   1.083       .  S
S333        H338   1.407       .  S
S335        H339   1.404       .  S
H340        S832   1.406       .  S
C341        C342   1.401       .  A
C341        C346   1.394       .  A
C341        H351   1.084       .  S
C342        C343   1.414       .  A
C342        C347   1.481       .  S
C343        C344   1.402       .  A
C343        S348   1.804       .  S
C344        C345   1.403       .  A
C344        H349   1.083       .  S
C345        C346   1.411       .  A
C346        S350   1.799       .  S
C347        C352   1.411       .  A
C347        C356   1.404       .  A
S348        H364   1.406       .  S
S350        H361   1.403       .  S
C352        C353   1.401       .  A
C352        S357   1.805       .  S
C353        C354   1.401       .  A
C353        H358   1.083       .  S
C354        C355   1.411       .  A
C355        C356   1.399       .  A
C355        S359   1.804       .  S
C356        H360   1.084       .  S
S357        H362   1.406       .  S
S359        H363   1.404       .  S
C365        C366   1.402       .  A
C365        C370   1.399       .  A
C365        H375   1.084       .  S
C366        C367   1.414       .  A
C366        C371   1.483       .  S
C367        C368   1.399       .  A
C367        S372   1.805       .  S
C368        C369   1.404       .  A
C368        H373   1.084       .  S
C369        C370   1.415       .  A
C370        S374   1.805       .  S
C371        C376   1.409       .  A
C371        C380   1.404       .  A
S372        H388   1.406       .  S
S374        H385   1.405       .  S
C376        C377   1.395       .  A
C376        S381   1.800       .  S
C377        C378   1.402       .  A
C377        H382   1.083       .  S
C378        C379   1.416       .  A
C379        C380   1.404       .  A
C379        S383   1.801       .  S
C380        H384   1.084       .  S
S381        H386   1.407       .  S
S383        H387   1.407       .  S
C389        C390   1.407       .  A
C389        C394   1.399       .  A
C389        H399   1.083       .  S
C390        C391   1.415       .  A
C390        C395   1.487       .  S
C391        C392   1.397       .  A
C391        S396   1.803       .  S
C392        C393   1.401       .  A
C392        H397   1.084       .  S
C393        C394   1.409       .  A
C394        S398   1.802       .  S
C395        C400   1.413       .  A
C395        C404   1.405       .  A
S396        H412   1.406       .  S
S398        H409   1.406       .  S
C400        C401   1.399       .  A
C400        S405   1.807       .  S
C401        C402   1.404       .  A
C401        H406   1.082       .  S
C402        C403   1.415       .  A
C403        C404   1.401       .  A
C403        S407   1.802       .  S
C404        H408   1.083       .  S
S405        H410   1.406       .  S
S407        H411   1.407       .  S
C413        C414   1.402       .  A
C413        C418   1.399       .  A
C413        H423   1.084       .  S
C414        C415   1.412       .  A
C414        C419   1.482       .  S
C415        C416   1.398       .  A
C415        S420   1.804       .  S
C416        C417   1.404       .  A
C416        H421   1.084       .  S
C417        C418   1.417       .  A
C418        S422   1.805       .  S
C419        C424   1.411   1_545  A
C419        C428   1.401       .  A
S420        H436   1.406       .  S
S422        H433   1.400       .  S
C424        C425   1.406       .  A
C424        S937   1.806       .  S
C425        C426   1.405   1_565  A
C425        H938   1.083       .  S
C426        C427   1.414       .  A
C427        C428   1.394       .  A
C427        S431   1.806       .  S
C428        H432   1.084       .  S
S429        C932   1.805       .  S
S429        H434   1.407       .  S
H430        C933   1.083       .  S
S431        H435   1.407       .  S
C437        C438   1.405       .  A
C437        C442   1.399       .  A
C437        H447   1.084       .  S
C438        C439   1.415       .  A
C438        C443   1.480       .  S
C439        C440   1.398       .  A
C439        S444   1.805       .  S
C440        C441   1.401       .  A
C440        H445   1.084       .  S
C441        C442   1.410       .  A
C442        S446   1.804       .  S
C443        C448   1.411       .  A
C443        C452   1.400       .  A
S444        H460   1.402       .  S
S446        H457   1.404       .  S
C448        C449   1.406       .  A
C448        S453   1.805       .  S
C449        C450   1.406       .  A
C449        H454   1.083       .  S
C450        C451   1.412       .  A
C451        C452   1.393       .  A
C451        S455   1.801       .  S
C452        H456   1.084       .  S
S453        H458   1.407       .  S
S455        H459   1.403       .  S
C461        C462   1.402       .  A
C461        C466   1.397       .  A
C461        H471   1.084       .  S
C462        C463   1.413       .  A
C462        C467   1.482       .  S
C463        C464   1.402       .  A
C463        S468   1.803       .  S
C464        C465   1.403       .  A
C464        H469   1.083       .  S
C465        C466   1.413       .  A
C466        S470   1.802       .  S
C467        C472   1.407       .  A
C467        C476   1.399       .  A
S468        H484   1.405       .  S
S470        H481   1.401       .  S
C472        C473   1.403       .  A
C472        S477   1.804       .  S
C473        C474   1.411       .  A
C473        H478   1.082       .  S
C474        C475   1.422   1_545  A
C475        C476   1.400   1_565  A
C475        S987   1.802       .  S
C476        H480   1.084   1_545  S
S477        H482   1.406       .  S
S479        C983   1.802       .  S
S479        H483   1.408       .  S
C485        C486   1.400       .  A
C485        C490   1.398       .  A
C485        H495   1.083       .  S
C486        C487   1.409       .  A
C486        C491   1.474       .  S
C487        C488   1.401       .  A
C487        S492   1.803       .  S
C488        C489   1.406       .  A
C488        H493   1.083       .  S
C489        C490   1.416       .  A
C490        S494   1.811       .  S
C491        C496   1.406       .  A
C491        C500   1.400       .  A
S492        H508   1.405       .  S
S494        H505   1.407       .  S
C496        C497   1.399       .  A
C496        S501   1.804       .  S
C497        C498   1.403       .  A
C497        H502   1.083       .  S
C498        C499   1.416       .  A
C499        C500   1.399       .  A
C499        S503   1.806       .  S
C500        H504   1.084       .  S
S501        H506   1.407       .  S
S503        H507   1.399       .  S
C509        C510   1.416       .  A
C509        C514   1.403       .  A
C509       C1006   1.482       .  S
C510        C511   1.402       .  A
C510        C973   1.487       .  S
C511        C512   1.404       .  A
C511        H516   1.084       .  S
C512        C513   1.418       .  A
C512        C925   1.485       .  S
C513        C514   1.403       .  A
C513        C958   1.487       .  S
C514        H515   1.085       .  S
O517        C533   1.274       .  A
O517       Zn523   2.023       .  S
C518        C886   1.488       .  S
C518        O534   1.275       .  A
C518        O531   1.274       .  A
O519        C532   1.274       .  A
O519       Cd526   2.075       .  S
O520        C538   1.274       .  A
O520       Cd529   2.052       .  S
O521        C535   1.272       .  A
O521       Cd525   2.060       .  S
O522        C533   1.271       .  A
O522       Cd525   2.056       .  S
Zn523       O534   2.017       .  S
Zn523       O536   2.019       .  S
Zn523       O528   1.932       .  S
O524        C535   1.273       .  A
O524       Cd529   2.067       .  S
Cd525       O527   2.052       .  S
Cd525       O528   1.995       .  S
Cd526       O530   2.077       .  S
Cd526       O539   2.073       .  S
Cd526       O528   2.011       .  S
O527        C537   1.272       .  A
O528       Cd529   1.994       .  S
Cd529       O531   2.072       .  S
O530        C537   1.275       .  A
C532        C558   1.460       .  S
C532        O536   1.274       .  A
C533        C862   1.465       .  S
C535        C555   1.456       .  S
C537        C997   1.479       .  S
C538        C910   1.476       .  S
C538        O539   1.275       .  A
O540        C556   1.273       .  A
O540       Zn546   2.005       .  S
C541        C982   1.496       .  S
C541        O557   1.276       .  A
O542        C555   1.272       .  A
O542       Cd549   2.065       .  S
O543        C561   1.273       .  A
O543       Cd552   2.058       .  S
O544        C558   1.275       .  A
O544       Cd548   2.079       .  S
O545       Cd548   2.081       .  S
Zn546       O557   2.029       .  S
Zn546       O559   2.016       .  S
Zn546       O551   1.930       .  S
O547        C558   1.273       .  A
O547       Cd552   2.064       .  S
Cd548       O550   2.064       .  S
Cd549       O551   2.004       .  S
O550        C560   1.274       .  A
Cd552       O554   2.067       .  S
O553        C560   1.275   1_545  A
C555        O559   1.274       .  A
C556        C829   1.462       .  S
C560        C805   1.476       .  S
C561        C781   1.472       .  S
C561        O562   1.275   1_565  A
C563        C564   1.416       .  A
C563        C568   1.400       .  A
C563        C838   1.480       .  S
C564        C565   1.399       .  A
C564        C901   1.478       .  S
C565        C566   1.398       .  A
C565        H570   1.085       .  S
C566        C567   1.418       .  A
C566        C733   1.481       .  S
C567        C568   1.400       .  A
C567        C757   1.482       .  S
C568        H569   1.085       .  S
O571        C587   1.272       .  A
O571       Zn577   2.005   1_655  S
C572        C742   1.482       .  S
C572        O588   1.274       .  A
C572        O585   1.274       .  A
O573        C586   1.274       .  A
O573       Cd580   2.081       .  S
O574        C592   1.275       .  A
O574       Cd583   2.063       .  S
O575        C589   1.274       .  A
O575       Cd579   2.069       .  S
O576        C587   1.275       .  A
O576       Cd579   2.082   1_655  S
Zn577       O588   2.019       .  S
Zn577       O590   1.997       .  S
Zn577       O582   1.928       .  S
O578        C589   1.273       .  A
O578       Cd583   2.070       .  S
Cd579       O581   2.064       .  S
Cd579       O582   1.996       .  S
Cd580       O584   2.080   1_556  S
Cd580       O593   2.071       .  S
Cd580       O582   2.012       .  S
O581        C591   1.273   1_556  A
O582       Cd583   2.002       .  S
Cd583       O585   2.065       .  S
O584        C591   1.275       .  A
C586        C612   1.456       .  S
C586        O590   1.271       .  A
C587        C949   1.469       .  S
C589        C609   1.458       .  S
C591        C694   1.468       .  S
C592        C709   1.481       .  S
C592        O593   1.275       .  A
O594        C610   1.273       .  A
O594       Zn600   2.010       .  S
C595        C637   1.476   1_455  S
C595        O611   1.271       .  A
O596        C609   1.275       .  A
O596       Cd603   2.088       .  S
O597        C615   1.274       .  A
O597       Cd606   2.057   1_655  S
O598        C612   1.272       .  A
O598       Cd602   2.063       .  S
O599       Cd602   2.051       .  S
Zn600       O611   1.992   1_556  S
Zn600       O613   1.991       .  S
Zn600       O605   1.925   1_565  S
O601        C612   1.273       .  A
O601       Cd606   2.067       .  S
Cd602       O604   2.058       .  S
Cd603       O605   2.014   1_565  S
O604        C614   1.273       .  A
Cd606       O608   2.074   1_556  S
O607        C614   1.275       .  A
C609        O613   1.270       .  A
C610        C670   1.485   1_556  S
C614        C766   1.468       .  S
C615        C934   1.474       .  S
C615        O616   1.276   1_655  A
C617        C618   1.419       .  A
C617        C622   1.402       .  A
C617        C814   1.489       .  S
C618        C619   1.400       .  A
C618        C877   1.480       .  S
C619        C620   1.401       .  A
C619        H624   1.084       .  S
C620        C621   1.418       .  A
C620        C718   1.483       .  S
C621        C622   1.400       .  A
C621        C661   1.485       .  S
C622        H623   1.084       .  S
C625        C626   1.415       .  A
C625        C630   1.401       .  A
C625        C853   1.479       .  S
C626        C627   1.401       .  A
C626        C790   1.483       .  S
C627        C628   1.400       .  A
C627        H632   1.084       .  S
C628        C629   1.414       .  A
C628        C646   1.478       .  S
C629        C630   1.400       .  A
C629        C685   1.479       .  S
C630        H631   1.085       .  S
C633        C634   1.399       .  A
C633        C638   1.394       .  A
C633        H643   1.085       .  S
C634        C635   1.412       .  A
C634        C639   1.474       .  S
C635        C636   1.401   1_565  A
C635        S640   1.804   1_565  S
C636        C637   1.404   1_545  A
C636        H641   1.084       .  S
C637        C638   1.416       .  A
C638        S642   1.805   1_655  S
C639        C644   1.408       .  A
C639        C648   1.402       .  A
S640        H656   1.405       .  S
S642        H653   1.407   1_455  S
C644        C645   1.399       .  A
C645        C646   1.402       .  A
C645        H650   1.083       .  S
C646        C647   1.411       .  A
C647        C648   1.399       .  A
C647        S651   1.803       .  S
C648        H652   1.084       .  S
S649        H654   1.407       .  S
S651        H655   1.405       .  S
C657        C658   1.404       .  A
C657        C662   1.398       .  A
C657        H667   1.083       .  S
C658        C659   1.413       .  A
C658        C663   1.484       .  S
C659        C660   1.398       .  A
C660        C661   1.403       .  A
C660        H665   1.083       .  S
C661        C662   1.412       .  A
C662        S666   1.801       .  S
C663        C668   1.410       .  A
C663        C672   1.402       .  A
S664        H680   1.406       .  S
S666        H677   1.406       .  S
C668        C669   1.403   1_564  A
C668        S673   1.807   1_564  S
C669        C670   1.408   1_546  A
C669        H674   1.082       .  S
C670        C671   1.417       .  A
C671        C672   1.396       .  A
C671        S675   1.803       .  S
C672        H676   1.083       .  S
S673        H678   1.407       .  S
S675        H679   1.408       .  S
C681        C682   1.402       .  A
C681        C686   1.397       .  A
C681        H691   1.084       .  S
C682        C683   1.412       .  A
C682        C687   1.481       .  S
C683        C684   1.400       .  A
C683        S688   1.803       .  S
C684        C685   1.403       .  A
C684        H689   1.084       .  S
C685        C686   1.415       .  A
C686        S690   1.809       .  S
C687        C692   1.411       .  A
C687        C696   1.403   1_655  A
S688        H704   1.406   1_655  S
S690        H701   1.399       .  S
C692        C693   1.403       .  A
C692        S697   1.806       .  S
C693        C694   1.402   1_655  A
C693        H698   1.083       .  S
C694        C695   1.412       .  A
C695        C696   1.399       .  A
C695        S699   1.805       .  S
C696        H700   1.084       .  S
S697        H702   1.407       .  S
S699        H703   1.404       .  S
C705        C706   1.401       .  A
C705        C710   1.404       .  A
C705        H715   1.083       .  S
C706        C707   1.410   1_554  A
C706        C711   1.475       .  S
C707        C708   1.395       .  A
C707        S712   1.806       .  S
C708        C709   1.406       .  A
C708        H713   1.084       .  S
C709        C710   1.416   1_556  A
C710        S714   1.808       .  S
C711        C716   1.407       .  A
C711        C720   1.401       .  A
S712        H728   1.405       .  S
S714        H725   1.407       .  S
C716        C717   1.397       .  A
C716        S721   1.807       .  S
C717        C718   1.404       .  A
C717        H722   1.082       .  S
C718        C719   1.416       .  A
C719        C720   1.400       .  A
C719        S723   1.806       .  S
C720        H724   1.084       .  S
S721        H726   1.407       .  S
S723        H727   1.403       .  S
C729        C730   1.402       .  A
C729        C734   1.401       .  A
C729        H739   1.083       .  S
C730        C731   1.414       .  A
C730        C735   1.478       .  S
C731        C732   1.397       .  A
C731        S736   1.804       .  S
C732        C733   1.402       .  A
C732        H737   1.084       .  S
C733        C734   1.409       .  A
C734        S738   1.804       .  S
C735        C740   1.407       .  A
C735        C744   1.400       .  A
S736        H752   1.405       .  S
S738        H749   1.407       .  S
C740        C741   1.403       .  A
C740        S745   1.806       .  S
C741        C742   1.407       .  A
C741        H746   1.083       .  S
C742        C743   1.417       .  A
C743        C744   1.401       .  A
C743        S747   1.810       .  S
C744        H748   1.083       .  S
S745        H750   1.407       .  S
S747        H751   1.405       .  S
C753        C754   1.405       .  A
C753        C758   1.400       .  A
C753        H763   1.083       .  S
C754        C755   1.411       .  A
C754        C759   1.479       .  S
C755        C756   1.392       .  A
C756        C757   1.403       .  A
C756        H761   1.083       .  S
C757        C758   1.414       .  A
C758        S762   1.806       .  S
C759        C764   1.411       .  A
C759        C768   1.403       .  A
S762        H773   1.403       .  S
C764        C765   1.402       .  A
C764        S769   1.808       .  S
C765        C766   1.402       .  A
C765        H770   1.083       .  S
C766        C767   1.411       .  A
C767        C768   1.396       .  A
C768        H772   1.084       .  S
S769        H774   1.407       .  S
S771        H775   1.406       .  S
C777        C778   1.401       .  A
C777        C782   1.396       .  A
C777        H787   1.083       .  S
C778        C779   1.411       .  A
C778        C783   1.478       .  S
C779        C780   1.401       .  A
C779        S784   1.802   1_565  S
C780        C781   1.404       .  A
C780        H785   1.084   1_565  S
C781        C782   1.414       .  A
C782        S786   1.806       .  S
C783        C788   1.408       .  A
C783        C792   1.400       .  A
S784        H800   1.406       .  S
S786        H797   1.407       .  S
C788        C789   1.403       .  A
C788        S793   1.805       .  S
C789        C790   1.404       .  A
C789        H794   1.083       .  S
C790        C791   1.413       .  A
C791        C792   1.401       .  A
C791        S795   1.808       .  S
C792        H796   1.083       .  S
S793        H798   1.407       .  S
S795        H799   1.406       .  S
C801        C802   1.405       .  A
C801        C806   1.397       .  A
C801        H811   1.084       .  S
C802        C803   1.419       .  A
C802        C807   1.489       .  S
C803        C804   1.402       .  A
C803        S808   1.807       .  S
C804        C805   1.403       .  A
C804        H809   1.084       .  S
C805        C806   1.411       .  A
C806        S810   1.804   1_565  S
C807        C812   1.415       .  A
C807        C816   1.406       .  A
S808        H824   1.399       .  S
C812        C813   1.396       .  A
C812        S817   1.810       .  S
C813        C814   1.401       .  A
C813        H818   1.079       .  S
C814        C815   1.415       .  A
C815        C816   1.404       .  A
C815        S819   1.803       .  S
C816        H820   1.084       .  S
S817        H822   1.407       .  S
S819        H823   1.406       .  S
C825        C826   1.401       .  A
C825        C830   1.396       .  A
C825        H835   1.084       .  S
C826        C827   1.413       .  A
C826        C831   1.477       .  S
C827        C828   1.398       .  A
C828        C829   1.401       .  A
C829        C830   1.410       .  A
C830        S834   1.804       .  S
C831        C836   1.411       .  A
C831        C840   1.402       .  A
S834        H845   1.403       .  S
C836        C837   1.397       .  A
C836        S841   1.809       .  S
C837        C838   1.402       .  A
C837        H842   1.081       .  S
C838        C839   1.415       .  A
C839        C840   1.400       .  A
C839        S843   1.806       .  S
C840        H844   1.084       .  S
S841        H846   1.407       .  S
S843        H847   1.403       .  S
C849        C850   1.401       .  A
C849        C854   1.393       .  A
C849        H859   1.084       .  S
C850        C851   1.414       .  A
C850        C855   1.480       .  S
C851        C852   1.402       .  A
C851        S856   1.804       .  S
C852        C853   1.403       .  A
C852        H857   1.083       .  S
C853        C854   1.411       .  A
C854        S858   1.799       .  S
C855        C860   1.411       .  A
C855        C864   1.404       .  A
S856        H872   1.406       .  S
S858        H869   1.403       .  S
C860        C861   1.400       .  A
C860        S865   1.803       .  S
C861        C862   1.399       .  A
C861        H866   1.083       .  S
C862        C863   1.411       .  A
C863        C864   1.399       .  A
C863        S867   1.805       .  S
C864        H868   1.084       .  S
S865        H870   1.406       .  S
S867        H871   1.403       .  S
C873        C874   1.402       .  A
C873        C878   1.398       .  A
C873        H883   1.083       .  S
C874        C875   1.413       .  A
C874        C879   1.483       .  S
C875        C876   1.400       .  A
C875        S880   1.803       .  S
C876        C877   1.402       .  A
C876        H881   1.083       .  S
C877        C878   1.415       .  A
C878        S882   1.807       .  S
C879        C884   1.410       .  A
C879        C888   1.402       .  A
S880        H896   1.406       .  S
S882        H893   1.404       .  S
C884        C885   1.398       .  A
C884        S889   1.803       .  S
C885        C886   1.405       .  A
C885        H890   1.082       .  S
C886        C887   1.419       .  A
C887        C888   1.403       .  A
C887        S891   1.802       .  S
C888        H892   1.084       .  S
S889        H894   1.406       .  S
S891        H895   1.407       .  S
C897        C898   1.405       .  A
C897        C902   1.398       .  A
C897        H907   1.084       .  S
C898        C899   1.412       .  A
C898        C903   1.481       .  S
C899        C900   1.397       .  A
C899        S904   1.803       .  S
C900        C901   1.402       .  A
C900        H905   1.084       .  S
C901        C902   1.410       .  A
C902        S906   1.802       .  S
C903        C908   1.409       .  A
C903        C912   1.404       .  A
S904        H920   1.406       .  S
S906        H917   1.405       .  S
C908        C909   1.397       .  A
C908        S913   1.805       .  S
C909        C910   1.404       .  A
C909        H914   1.083       .  S
C910        C911   1.414       .  A
C911        C912   1.401       .  A
C911        S915   1.802       .  S
C912        H916   1.084       .  S
S913        H918   1.406       .  S
S915        H919   1.407       .  S
C921        C922   1.401       .  A
C921        C926   1.399       .  A
C921        H931   1.084       .  S
C922        C923   1.411       .  A
C922        C927   1.480       .  S
C923        C924   1.398       .  A
C923        S928   1.803       .  S
C924        C925   1.404       .  A
C924        H929   1.084       .  S
C925        C926   1.417       .  A
C926        S930   1.804       .  S
C927        C932   1.410       .  A
C927        C936   1.400       .  A
S928        H944   1.406       .  S
S930        H941   1.398       .  S
C932        C933   1.407       .  A
C933        C934   1.405       .  A
C934        C935   1.414       .  A
C935        C936   1.394       .  A
C935        S939   1.806       .  S
C936        H940   1.084       .  S
S937        H942   1.407       .  S
S939        H943   1.407       .  S
C945        C946   1.405       .  A
C945        C950   1.400       .  A
C945        H955   1.083       .  S
C946        C947   1.415       .  A
C946        C951   1.483       .  S
C947        C948   1.399       .  A
C947        S952   1.803       .  S
C948        C949   1.401       .  A
C948        H953   1.084       .  S
C949        C950   1.410       .  A
C950        S954   1.803       .  S
C951        C956   1.411       .  A
C951        C960   1.401       .  A
S952        H968   1.402       .  S
S954        H965   1.405       .  S
C956        C957   1.407       .  A
C956        S961   1.805       .  S
C957        C958   1.405       .  A
C957        H962   1.083       .  S
C958        C959   1.413       .  A
C959        C960   1.396       .  A
C959        S963   1.800       .  S
C960        H964   1.084       .  S
S961        H966   1.407       .  S
S963        H967   1.402       .  S
C969        C970   1.400       .  A
C969        C974   1.396       .  A
C969        H979   1.084       .  S
C970        C971   1.413       .  A
C970        C975   1.481       .  S
C971        C972   1.404       .  A
C971        S976   1.803       .  S
C972        C973   1.405       .  A
C972        H977   1.083       .  S
C973        C974   1.414       .  A
C974        S978   1.800       .  S
C975        C980   1.406       .  A
C975        C984   1.399       .  A
S976        H992   1.405       .  S
S978        H989   1.399       .  S
C980        C981   1.403       .  A
C980        S985   1.802       .  S
C981        C982   1.410       .  A
C981        H986   1.082       .  S
C982        C983   1.422       .  A
C983        C984   1.400       .  A
C984        H988   1.084       .  S
S985        H990   1.406       .  S
S987        H991   1.408       .  S
C993        C994   1.400       .  A
C993        C998   1.399       .  A
C993       H1003   1.083       .  S
C994        C995   1.409       .  A
C994        C999   1.474       .  S
C995        C996   1.401       .  A
C995       S1000   1.802       .  S
C996        C997   1.406       .  A
C996       H1001   1.084       .  S
C997        C998   1.416       .  A
C998       S1002   1.811       .  S
C999       C1004   1.406       .  A
C999       C1008   1.399       .  A
S1000      H1016   1.405       .  S
S1002      H1013   1.407       .  S
C1004      C1005   1.401       .  A
C1004      S1009   1.804       .  S
C1005      C1006   1.405       .  A
C1005      H1010   1.083       .  S
C1006      C1007   1.416       .  A
C1007      C1008   1.397       .  A
C1007      S1011   1.805       .  S
C1008      H1012   1.084       .  S
S1009      H1014   1.407       .  S
S1011      H1015   1.399       .  S
