geometry optimzed in LAMMPS
_audit_creation_date              2020-11-30 
_audit_creation_method            'lammps2cif' 
_symmetry_space_group_name_H-M    'P1' 
_symmetry_Int_Tables_number       1 
_symmetry_cell_setting            triclinic 
loop_ 
_symmetry_equiv_pos_as_xyz 
  x,y,z 
_cell_length_a                    44.81732635 
_cell_length_b                    32.007347751423616 
_cell_length_c                    27.47219191430749 
_cell_angle_alpha                 89.81995083855033 
_cell_angle_beta                  89.88094242288709 
_cell_angle_gamma                 90.20668903515381 
loop_ 
_atom_site_label 
_atom_site_type_symbol 
_atom_site_fract_x 
_atom_site_fract_y 
_atom_site_fract_z 
_atom_site_charge 
O1          O  0.45185312  0.41534062  0.41003023    -0.74200
O2          O  0.41747573  0.45553509  0.44879846    -0.53100
C3          C  0.42477059  0.42565389  0.42007314     0.79500
O4          O  0.05224852  0.41828701  0.09473232    -0.58800
O5          O  0.08682812  0.45567850  0.05210380    -0.51800
C6          C  0.07937008  0.42696472  0.08263997     0.71500
O7          O  0.45162079  0.41716072  0.09106854    -0.73400
O8          O  0.41739960  0.45688175  0.05144684    -0.53900
C9          C  0.42459860  0.42710053  0.08049813     0.77500
O10         O  0.05276603  0.41652441  0.40872567    -0.58500
O11         O  0.08724452  0.45503077  0.44977849    -0.51600
C12         C  0.07984578  0.42594182  0.41993169     0.74100
Zr13       Zr  0.50231330  0.43894870  0.42937444     2.54700
O14         O  0.50271684  0.36288917  0.42890009    -0.79100
O15         O  0.00190927  0.44362477  0.34031181    -0.92500
Zr16       Zr  0.50202136  0.44174797  0.07405205     2.64700
O17         O  0.50102518  0.36616340  0.08521075    -0.97500
O18         O  0.00155500  0.45179000  0.16216269    -0.79500
O19         O  0.47361242  0.43988084  0.50194485    -0.82900
O20         O  0.03046400  0.43907958  0.50168021    -2.17600
O21         O  0.05328490  0.08791751  0.40708344    -0.66300
O22         O  0.08757002  0.04881339  0.44771376    -0.50800
C23         C  0.08032212  0.07821491  0.41817230     0.72500
O24         O  0.45272395  0.08704830  0.09493207    -0.59200
O25         O  0.41813959  0.04915753  0.05342353    -0.51100
C26         C  0.42557482  0.07780487  0.08385681     0.74300
O27         O  0.05301100  0.08648366  0.09394243    -0.70600
O28         O  0.08738598  0.04924571  0.05140678    -0.49200
C29         C  0.08007915  0.07772521  0.08204968     0.75700
O30         O  0.45240625  0.09005623  0.40978007    -0.65900
O31         O  0.41786807  0.05090626  0.45009924    -0.53100
C32         C  0.42523752  0.08074126  0.42097226     0.74100
Zr33       Zr  0.00259160  0.06497696  0.42712424     2.77500
O34         O  0.00249918  0.14089626  0.42030567    -0.96600
O35         O  0.00127888  0.05670736  0.33902983    -0.77500
Zr36       Zr  0.00263895  0.06325691  0.07375124     2.70100
O37         O  0.00284934  0.13905862  0.08022701    -0.78700
O38         O  0.00292337  0.05476266  0.16185158    -0.97800
Zr39       Zr  0.44593056  0.00300561  0.00051397     2.21500
Zr40       Zr  0.05897107  0.50200674  0.50072324     2.11100
O41         O  0.03084661  0.06516255  0.00066838    -2.46500
O42         O  0.47442172  0.06556750  0.00108402    -0.78500
O43         O  0.03178162  0.50110205  0.42623487    -0.70700
O44         O  0.47364023  0.00142634  0.07443257    -2.31700
O45         O  0.47330352  0.00327976  0.42593208    -2.27900
O46         O  0.03127761  0.50379673  0.07453917    -0.72500
H47         H  0.04305508  0.41529192  0.00214806     0.79500
H48         H  0.46063044  0.00102683  0.10250559     0.80600
H49         H  0.04350456  0.08961391  0.50024577     0.82800
H50         H  0.46017006  0.00361206  0.39812042     0.80500
H51         H  0.52126868  0.45723135  0.17119999     0.43500
H52         H  0.01668947  0.03118092  0.16784035     0.42500
H53         H  0.50287010  0.14834434  0.04350491     0.42100
H54         H  0.01676697  0.15054149  0.44536653     0.40100
H55         H  0.02017674  0.04236764  0.33091685     0.43200
H56         H  0.50533469  0.41302100  0.33036893     0.38000
H57         H  0.49527756  0.35481600  0.46157714     0.44100
H58         H  0.01677228  0.35596006  0.06049816     0.40500
H59         H  0.01245847  0.14707793  0.38886365     0.45400
H60         H  0.52064569  0.45705923  0.33209654     0.44200
H61         H  0.50901111  0.36143036  0.11834550     0.44300
H62         H  0.01379043  0.07959145  0.17402594     0.44700
O63         O  0.30229625  0.33700230  0.15545929    -0.74200
O64         O  0.33677738  0.29914521  0.19690555    -0.53100
C65         C  0.32938365  0.32805025  0.16682649     0.79500
O66         O  0.20150864  0.33907830  0.34030363    -0.58800
O67         O  0.16698774  0.29955600  0.30071299    -0.51800
C68         C  0.17438326  0.32906908  0.33004743     0.71500
O69         O  0.30227111  0.34006980  0.34036657    -0.73400
O70         O  0.33685284  0.30160074  0.29968618    -0.53900
C71         C  0.32938755  0.33065117  0.32946953     0.77500
O72         O  0.20163163  0.33530744  0.15366706    -0.58500
O73         O  0.16714008  0.29809894  0.19671029    -0.51600
C74         C  0.17451031  0.32644681  0.16562660     0.74100
Zr75       Zr  0.25205628  0.31244330  0.17432337     2.54700
O76         O  0.25222771  0.38788530  0.16314968    -0.79100
O77         O  0.25150103  0.30156802  0.08661944    -0.92500
Zr78       Zr  0.25200438  0.31656561  0.31981578     2.64700
O79         O  0.25357042  0.39264019  0.31983464    -0.97500
O80         O  0.25066880  0.31306228  0.40831057    -0.79500
O81         O  0.28047154  0.31559574  0.24702737    -0.82900
O82         O  0.22370336  0.31576835  0.24710678    -2.17600
O83         O  0.20238611  0.16706093  0.15762266    -0.66300
O84         O  0.16778077  0.20511622  0.19868039    -0.50800
C85         C  0.17525107  0.17632075  0.16856381     0.72500
O86         O  0.30263771  0.16958818  0.34486074    -0.59200
O87         O  0.33707207  0.20787290  0.30326942    -0.51100
C88         C  0.32976307  0.17909551  0.33382468     0.74300
O89         O  0.20218847  0.16974553  0.34590298    -0.70600
O90         O  0.16779815  0.20682759  0.30300806    -0.49200
C91         C  0.17515969  0.17850707  0.33391604     0.75700
O92         O  0.30354048  0.16557044  0.16150566    -0.65900
O93         O  0.33793889  0.20571848  0.20053285    -0.53100
C94         C  0.33064848  0.17564307  0.17198717     0.74100
Zr95       Zr  0.25282585  0.18908446  0.17934057     2.77500
O96         O  0.25272648  0.11296002  0.17807300    -0.96600
O97         O  0.25443864  0.19242704  0.09085628    -0.77500
Zr98       Zr  0.25242196  0.19284016  0.32442540     2.70100
O99         O  0.25211136  0.11697974  0.33046241    -0.78700
O100        O  0.25372682  0.19981133  0.41256748    -0.97800
Zr101      Zr  0.30903377  0.25320945  0.24984330     2.21500
Zr102      Zr  0.19552966  0.25266901  0.24965690     2.11100
O103        O  0.22408767  0.18996074  0.25181081    -2.46500
O104        O  0.28117092  0.19003592  0.25205316    -0.78500
O105        O  0.22317935  0.25038387  0.17563700    -0.70700
O106        O  0.28123582  0.25503733  0.32370117    -2.31700
O107        O  0.28165533  0.25114171  0.17561181    -2.27900
O108        O  0.22304704  0.25445214  0.32364829    -0.72500
H109        H  0.21094156  0.34004260  0.24629422     0.79500
H110        H  0.29422024  0.25579215  0.35170602     0.80600
H111        H  0.21135957  0.16551747  0.25252898     0.82800
H112        H  0.29487053  0.25052302  0.14785345     0.80500
H113        H  0.25151402  0.34257336  0.41892325     0.43500
H114        H  0.23535442  0.21540777  0.42075612     0.42500
H115        H  0.25472970  0.10736685  0.29650255     0.42100
H116        H  0.23433368  0.10452169  0.19559717     0.40100
H117        H  0.23774403  0.21109688  0.08191394     0.43200
H118        H  0.27134159  0.28978497  0.07883694     0.38000
H119        H  0.25057067  0.39918258  0.19655696     0.44100
H120        H  0.23751384  0.40121451  0.29725563     0.40500
H121        H  0.24888802  0.10563284  0.14364799     0.45400
H122        H  0.25201543  0.33008919  0.07261251     0.44200
H123        H  0.24625014  0.40075415  0.35247731     0.44300
H124        H  0.24999382  0.17117277  0.42491934     0.44700
C125        C  0.15727703  0.11367234  0.12158345     0.24700
C126        C  0.15096904  0.15153765  0.14556567    -0.23400
C127        C  0.12104833  0.16477706  0.14841159     0.19600
C128        C  0.09813636  0.14071983  0.12833732     0.24600
C129        C  0.10443321  0.10279030  0.10446688    -0.23400
C130        C  0.13437852  0.08970935  0.10130799     0.19500
F131        F  0.14172866  0.05321146  0.07932370    -0.13300
F132        F  0.18561213  0.09904242  0.11835033    -0.15700
F133        F  0.06977893  0.15523023  0.13183475    -0.15700
F134        F  0.11371695  0.20139179  0.17015522    -0.13300
C135        C  0.13275522  0.10625843  0.41946334     0.24700
C136        C  0.10477655  0.10330684  0.39628146    -0.23400
C137        C  0.10021793  0.12548515  0.35264152     0.19600
C138        C  0.12295483  0.15006568  0.33270911     0.24600
C139        C  0.15084001  0.15335013  0.35606944    -0.23400
C140        C  0.15547593  0.13102852  0.39964036     0.19500
F141        F  0.18187494  0.13353546  0.42368342    -0.13300
F142        F  0.13807835  0.08596314  0.46204958    -0.15700
F143        F  0.11778585  0.16962404  0.28960989    -0.15700
F144        F  0.07392816  0.12270259  0.32835813    -0.13300
C145        C  0.09738722  0.36227778  0.12585530     0.24700
C146        C  0.10363776  0.40143585  0.10439165    -0.23400
C147        C  0.13352903  0.41519935  0.10247927     0.19600
C148        C  0.15643823  0.39068810  0.12166836     0.24600
C149        C  0.15020555  0.35155128  0.14320564    -0.23400
C150        C  0.12033085  0.33764166  0.14479582     0.19500
F151        F  0.11313242  0.29979879  0.16407024    -0.13300
F152        F  0.06907740  0.34711787  0.12784476    -0.15700
F153        F  0.18470033  0.40606546  0.12008096    -0.15700
F154        F  0.14077604  0.45288939  0.08282308    -0.13300
C155        C  0.40650819  0.12582259  0.14964558     0.24700
C156        C  0.40122026  0.10226631  0.10718440    -0.23400
C157        C  0.37243728  0.10309900  0.08656032     0.19600
C158        C  0.34973154  0.12691831  0.10746631     0.24600
C159        C  0.35503438  0.15066299  0.14968542    -0.23400
C160        C  0.38375501  0.14972571  0.17055438     0.19500
F161        F  0.38983083  0.17120035  0.21194606    -0.13300
F162        F  0.43359281  0.12529736  0.17171893    -0.15700
F163        F  0.32262653  0.12725753  0.08546490    -0.15700
F164        F  0.36618110  0.08158036  0.04529242    -0.13300
C165        C  0.38275292  0.33843202  0.35607536     0.24700
C166        C  0.35370256  0.35490716  0.35293266    -0.23400
C167        C  0.34820439  0.39479463  0.37250609     0.19600
C168        C  0.37114466  0.41762754  0.39440992     0.24600
C169        C  0.40030164  0.40135166  0.39702247    -0.23400
C170        C  0.40572989  0.36135840  0.37768605     0.19500
F171        F  0.43317009  0.34368684  0.38064391    -0.13300
F172        F  0.38895923  0.29953348  0.33934113    -0.15700
F173        F  0.36471395  0.45605342  0.41232574    -0.15700
F174        F  0.32070212  0.41231847  0.36975931    -0.13300
C175        C  0.37055398  0.09675445  0.40866141     0.24700
C176        C  0.40079659  0.10628376  0.39910989    -0.23400
C177        C  0.40730045  0.14083563  0.36877882     0.19600
C178        C  0.38440920  0.16457782  0.34816777     0.24600
C179        C  0.35419053  0.15477088  0.35734695    -0.23400
C180        C  0.34767430  0.12064170  0.38828492     0.19500
F181        F  0.31906178  0.10963822  0.39869247    -0.13300
F182        F  0.36274228  0.06394835  0.43749654    -0.15700
F183        F  0.39215451  0.19720692  0.31899998    -0.15700
F184        F  0.43590283  0.15205311  0.35869071    -0.13300
C185        C  0.15608408  0.39356729  0.37285580     0.24700
C186        C  0.15015089  0.35366102  0.35336309    -0.23400
C187        C  0.12083041  0.33776799  0.35637512     0.19600
C188        C  0.09815168  0.36109922  0.37817105     0.24600
C189        C  0.10406960  0.40112375  0.39721946    -0.23400
C190        C  0.13340860  0.41686975  0.39464280     0.19500
F191        F  0.14025198  0.45526760  0.41243259    -0.13300
F192        F  0.18376961  0.41077019  0.37001233    -0.15700
F193        F  0.07050875  0.34380209  0.38168949    -0.15700
F194        F  0.11402489  0.29917607  0.33915971    -0.13300
C195        C  0.37030295  0.40761471  0.08812103     0.24700
C196        C  0.40014785  0.40222007  0.10303094    -0.23400
C197        C  0.40637868  0.37212525  0.13915261     0.19600
C198        C  0.38354874  0.34808869  0.15957360     0.24600
C199        C  0.35373275  0.35318825  0.14435988    -0.23800
C200        C  0.34748218  0.38331956  0.10827937     0.19500
F201        F  0.31925909  0.38938679  0.09186718    -0.13300
F202        F  0.36291721  0.43611437  0.05349078    -0.15700
F203        F  0.39094632  0.31998622  0.19463859    -0.15700
F204        F  0.43462271  0.36575868  0.15532171    -0.13300
O205        O  0.45191724  0.41576534  0.90937600    -0.74200
O206        O  0.41751430  0.45578029  0.94837346    -0.53100
C207        C  0.42481823  0.42597009  0.91953390     0.79500
O208        O  0.05226357  0.41727462  0.59443117    -0.58800
O209        O  0.08688277  0.45520541  0.55242368    -0.51800
C210        C  0.07939064  0.42626294  0.58264002     0.71500
O211        O  0.45149973  0.41799012  0.59319340    -0.73400
O212        O  0.41735989  0.45684734  0.55220824    -0.53900
C213        C  0.42449912  0.42756612  0.58200852     0.77500
O214        O  0.05277046  0.41710084  0.90832530    -0.58500
O215        O  0.08725397  0.45518035  0.94990158    -0.51600
C216        C  0.07985584  0.42626183  0.91980295     0.74100
Zr217      Zr  0.50239899  0.43961783  0.92858566     2.54700
O218        O  0.50299061  0.36359749  0.92575626    -0.79100
O219        O  0.00134177  0.44284090  0.84036912    -0.92500
Zr220      Zr  0.50187378  0.44208254  0.57489001     2.64700
O221        O  0.50062499  0.36630801  0.58414812    -0.97500
O222        O  0.00125781  0.45230717  0.66191960    -0.79500
O223        O  0.47370304  0.44001127  0.00112996    -0.82900
O224        O  0.03042399  0.43970493  0.00171582    -2.17600
O225        O  0.05296485  0.08822340  0.90722586    -0.66300
O226        O  0.08731050  0.04924172  0.94787300    -0.50800
C227        C  0.08000443  0.07856989  0.91823484     0.72500
O228        O  0.45265318  0.08651651  0.59508226    -0.59200
O229        O  0.41803639  0.04882101  0.55332894    -0.51100
C230        C  0.42549747  0.07740783  0.58382953     0.74300
O231        O  0.05293544  0.08606332  0.59360273    -0.70600
O232        O  0.08735195  0.04951226  0.55037103    -0.49200
C233        C  0.08001627  0.07764252  0.58141785     0.75700
O234        O  0.45246296  0.09065342  0.91044691    -0.65900
O235        O  0.41793133  0.05093809  0.95004250    -0.53100
C236        C  0.42529319  0.08105692  0.92129899     0.74100
Zr237      Zr  0.00251450  0.06503952  0.92794686     2.77500
O238        O  0.00222593  0.14108889  0.92333496    -0.96600
O239        O  0.00151946  0.05804034  0.83967390    -0.77500
Zr240      Zr  0.00248707  0.06330178  0.57302016     2.70100
O241        O  0.00265748  0.13909008  0.57960591    -0.78700
O242        O  0.00247670  0.05511328  0.66116418    -0.97800
Zr243      Zr  0.44582767  0.00275623  0.50030881     2.21500
Zr244      Zr  0.05892410  0.50252116  0.00045082     2.11100
O245        O  0.03075441  0.06518646  0.50002790    -2.46500
O246        O  0.47441773  0.06520145  0.50117997    -0.78500
O247        O  0.03163346  0.50159086  0.92608781    -0.70700
O248        O  0.47351518  0.00098111  0.57421119    -2.31700
O249        O  0.47342034  0.00348493  0.92616855    -2.27900
O250        O  0.03133908  0.50308499  0.57476583    -0.72500
H251        H  0.04307702  0.41464914  0.50208901     0.79500
H252        H  0.46047409  0.00052165  0.60224833     0.80600
H253        H  0.04359041  0.08959640  0.00083009     0.82800
H254        H  0.46026392  0.00375631  0.89838045     0.80500
H255        H  0.50186084  0.42657369  0.67712224     0.43500
H256        H  0.01561004  0.03086097  0.66731314     0.42500
H257        H  0.49486214  0.14775454  0.54655101     0.42100
H258        H  0.01705432  0.15026093  0.94776472     0.40100
H259        H  0.02050969  0.04398924  0.83143099     0.43200
H260        H  0.50750139  0.41584303  0.82911862     0.38000
H261        H  0.50329913  0.35482801  0.96034746     0.44100
H262        H  0.01606395  0.35469427  0.56380233     0.40500
H263        H  0.01145657  0.14793420  0.89148971     0.45400
H264        H  0.51949958  0.46179046  0.83193156     0.44200
H265        H  0.50990179  0.36065508  0.61616171     0.44300
H266        H  0.01395670  0.07942422  0.67326406     0.44700
O267        O  0.30215697  0.33765243  0.65657381    -0.74200
O268        O  0.33665905  0.29853549  0.69636519    -0.53100
C269        C  0.32924255  0.32811041  0.66723355     0.79500
O270        O  0.20152292  0.33861436  0.84081637    -0.58800
O271        O  0.16693535  0.29949653  0.80082835    -0.51800
C272        C  0.17438100  0.32876940  0.83047761     0.71500
O273        O  0.30227705  0.34021479  0.84006673    -0.73400
O274        O  0.33683488  0.30167520  0.79938270    -0.53900
C275        C  0.32938737  0.33081559  0.82907473     0.77500
O276        O  0.20174324  0.33575193  0.65401175    -0.58500
O277        O  0.16718261  0.29785464  0.69618417    -0.51600
C278        C  0.17462720  0.32649153  0.66550867     0.74100
Zr279      Zr  0.25201328  0.31245790  0.67458878     2.54700
O280        O  0.25186400  0.38778016  0.66222671    -0.79100
O281        O  0.25165337  0.29953718  0.58729252    -0.92500
Zr282      Zr  0.25201557  0.31633747  0.81995206     2.64700
O283        O  0.25329399  0.39241871  0.82026113    -0.97500
O284        O  0.25122820  0.31197536  0.90840807    -0.79500
O285        O  0.28049301  0.31544854  0.74720002    -0.82900
O286        O  0.22363301  0.31566680  0.74732208    -2.17600
O287        O  0.20222917  0.16738899  0.65723937    -0.66300
O288        O  0.16756636  0.20524922  0.69841182    -0.50800
C289        C  0.17506107  0.17657665  0.66814307     0.72500
O290        O  0.30268956  0.16955585  0.84455843    -0.59200
O291        O  0.33717495  0.20786765  0.80309816    -0.51100
C292        C  0.32983793  0.17906436  0.83357964     0.74300
O293        O  0.20197296  0.16959993  0.84539421    -0.70600
O294        O  0.16757131  0.20663701  0.80245371    -0.49200
C295        C  0.17493083  0.17831037  0.83332912     0.75700
O296        O  0.30352859  0.16602485  0.66062527    -0.65900
O297        O  0.33795907  0.20534532  0.70072226    -0.53100
C298        C  0.33064753  0.17568788  0.67159861     0.74100
Zr299      Zr  0.25275366  0.18909463  0.67925484     2.77500
O300        O  0.25295815  0.11300274  0.67988692    -0.96600
O301        O  0.25417625  0.19087502  0.59071698    -0.77500
Zr302      Zr  0.25234712  0.19273166  0.82437047     2.70100
O303        O  0.25217352  0.11695854  0.83186533    -0.78700
O304        O  0.25362445  0.20093732  0.91237218    -0.97800
Zr305      Zr  0.30901959  0.25303197  0.74977012     2.21500
Zr306      Zr  0.19541590  0.25261286  0.74956340     2.11100
O307        O  0.22400819  0.18990978  0.75170449    -2.46500
O308        O  0.28108523  0.18993395  0.75196193    -0.78500
O309        O  0.22313053  0.25044081  0.67566038    -0.70700
O310        O  0.28125319  0.25483050  0.82362663    -2.31700
O311        O  0.28158913  0.25116380  0.67561725    -2.27900
O312        O  0.22296031  0.25430688  0.82355435    -0.72500
H313        H  0.21087835  0.33995040  0.74659105     0.79500
H314        H  0.29426424  0.25556918  0.85160103     0.80600
H315        H  0.21128513  0.16546005  0.75233162     0.82800
H316        H  0.29476392  0.25061918  0.64780196     0.80500
H317        H  0.24409433  0.33970344  0.91915169     0.43500
H318        H  0.23398920  0.21306509  0.92078815     0.42500
H319        H  0.25515137  0.10688139  0.79816926     0.42100
H320        H  0.23416783  0.10476829  0.69638119     0.40100
H321        H  0.23835161  0.21088200  0.58149558     0.43200
H322        H  0.27263233  0.29307146  0.57890093     0.38000
H323        H  0.25039892  0.39945072  0.69548428     0.44100
H324        H  0.23731524  0.40094048  0.79750874     0.40500
H325        H  0.24998279  0.10506369  0.64542062     0.45400
H326        H  0.24805207  0.32729208  0.57249868     0.44200
H327        H  0.24579921  0.40038930  0.85284721     0.44300
H328        H  0.25274457  0.17202199  0.92520594     0.44700
C329        C  0.15721556  0.11429494  0.62027254     0.24700
C330        C  0.15078619  0.15177919  0.64498981    -0.23400
C331        C  0.12076552  0.16452206  0.64848947     0.19600
C332        C  0.09790335  0.14029641  0.62849002     0.24600
C333        C  0.10433282  0.10273850  0.60394290    -0.23400
C334        C  0.13436266  0.09016277  0.60009069     0.19500
F335        F  0.14185791  0.05401770  0.57745289    -0.13300
F336        F  0.18565513  0.10024480  0.61609447    -0.15700
F337        F  0.06944703  0.15429351  0.63270337    -0.15700
F338        F  0.11327322  0.20083466  0.67075194    -0.13300
C339        C  0.13242766  0.10646111  0.91913118     0.24700
C340        C  0.10440807  0.10360578  0.89611213    -0.23400
C341        C  0.09979458  0.12581245  0.85248196     0.19600
C342        C  0.12260102  0.15014795  0.83230657     0.24600
C343        C  0.15057761  0.15319627  0.85546328    -0.23400
C344        C  0.15520539  0.13094859  0.89906929     0.19500
F345        F  0.18163839  0.13334486  0.92301241    -0.13300
F346        F  0.13770680  0.08645738  0.96191301    -0.15700
F347        F  0.11737226  0.16979910  0.78927659    -0.15700
F348        F  0.07335818  0.12343309  0.82855301    -0.13300
C349        C  0.09798882  0.36006785  0.62156126     0.24700
C350        C  0.10366277  0.40087265  0.60436002    -0.23400
C351        C  0.13304270  0.41654311  0.60654072     0.19600
C352        C  0.15607565  0.39218470  0.62558423     0.24600
C353        C  0.15038529  0.35145323  0.64301135    -0.23400
C354        C  0.12105675  0.33563982  0.64045251     0.19500
F355        F  0.11465266  0.29610595  0.65531699    -0.13300
F356        F  0.07020733  0.34316272  0.61912710    -0.15700
F357        F  0.18384066  0.40915916  0.62808906    -0.15700
F358        F  0.13953433  0.45594495  0.59127166    -0.13300
C359        C  0.40615381  0.12442412  0.65033801     0.24700
C360        C  0.40115686  0.10201052  0.60697776    -0.23400
C361        C  0.37272290  0.10419188  0.58524675     0.19600
C362        C  0.35002572  0.12811344  0.60608757     0.24600
C363        C  0.35502554  0.15066073  0.64928647    -0.23400
C364        C  0.38342271  0.14842911  0.67118109     0.19500
F365        F  0.38916113  0.16866856  0.71353178    -0.13300
F366        F  0.43292058  0.12263893  0.67332377    -0.15700
F367        F  0.32326009  0.12978975  0.58309488    -0.15700
F368        F  0.36687839  0.08401341  0.54291543    -0.13300
C369        C  0.38265176  0.33840706  0.85627609     0.24700
C370        C  0.35372322  0.35516587  0.85237158    -0.23400
C371        C  0.34834610  0.39535868  0.87115903     0.19600
C372        C  0.37128556  0.41818050  0.89312355     0.24600
C373        C  0.40033524  0.40163079  0.89648588    -0.23400
C374        C  0.40563498  0.36133525  0.87791932     0.19500
F375        F  0.43292516  0.34335419  0.88180005    -0.13300
F376        F  0.38869620  0.29921592  0.84032637    -0.15700
F377        F  0.36496848  0.45684247  0.91040342    -0.15700
F378        F  0.32097331  0.41316780  0.86756035    -0.13300
C379        C  0.37060324  0.09662730  0.90828733     0.24700
C380        C  0.40085212  0.10654942  0.89937102    -0.23400
C381        C  0.40737071  0.14132925  0.86940165     0.19600
C382        C  0.38449032  0.16496685  0.84859715     0.24600
C383        C  0.35426259  0.15475550  0.85712993    -0.23400
C384        C  0.34773225  0.12028123  0.88751980     0.19500
F385        F  0.31911405  0.10865580  0.89690065    -0.13300
F386        F  0.36278191  0.06365466  0.93685624    -0.15700
F387        F  0.39226022  0.19786330  0.81985263    -0.15700
F388        F  0.43597923  0.15286897  0.85985419    -0.13300
C389        C  0.15620919  0.39318690  0.87368053     0.24700
C390        C  0.15019785  0.35337197  0.85397644    -0.23400
C391        C  0.12080929  0.33770516  0.85667974     0.19600
C392        C  0.09807935  0.36133074  0.87794067     0.24600
C393        C  0.10407348  0.40127786  0.89719628    -0.23400
C394        C  0.13350522  0.41672823  0.89507234     0.19500
F395        F  0.14039113  0.45514909  0.91274662    -0.13300
F396        F  0.18401055  0.41007713  0.87143987    -0.15700
F397        F  0.07027272  0.34445127  0.88055281    -0.15700
F398        F  0.11398842  0.29904237  0.83968950    -0.13300
C399        C  0.37025301  0.40755837  0.58877756     0.24700
C400        C  0.40000262  0.40270691  0.60448041    -0.23400
C401        C  0.40613180  0.37284321  0.64092997     0.19600
C402        C  0.38328370  0.34867019  0.66104717     0.24600
C403        C  0.35358244  0.35336228  0.64513238    -0.23800
C404        C  0.34743042  0.38310962  0.60862597     0.19500
F405        F  0.31933661  0.38843117  0.59127936    -0.13300
F406        F  0.36299493  0.43545522  0.55342494    -0.15700
F407        F  0.39054235  0.32077743  0.69642998    -0.15700
F408        F  0.43430676  0.36664424  0.65749265    -0.13300
O409        O  0.45200243  0.91644790  0.40992914    -0.74200
O410        O  0.41755011  0.95614039  0.44898533    -0.53100
C411        C  0.42488313  0.92606618  0.42054377     0.79500
O412        O  0.05320626  0.91776278  0.09359715    -0.58800
O413        O  0.08767078  0.95554530  0.05091783    -0.51800
C414        C  0.08028294  0.92700483  0.08174940     0.71500
O415        O  0.45214819  0.91486637  0.08909744    -0.73400
O416        O  0.41778243  0.95646084  0.05236970    -0.53900
C417        C  0.42508471  0.92573198  0.07999371     0.77500
O418        O  0.05269250  0.91753057  0.40618386    -0.58500
O419        O  0.08724691  0.95578605  0.44748408    -0.51600
C420        C  0.07978654  0.92672617  0.41760670     0.74100
Zr421      Zr  0.50245138  0.94149998  0.42632695     2.54700
O422        O  0.50202111  0.86579668  0.41806358    -0.79100
O423        O  0.00168138  0.95180592  0.33801942    -0.92500
Zr424      Zr  0.50261449  0.93955364  0.07179232     2.64700
O425        O  0.50267178  0.86342416  0.07401813    -0.97500
O426        O  0.00116117  0.94495735  0.16053112    -0.79500
O427        O  0.47393370  0.93993904  0.49900170    -0.82900
O428        O  0.03078507  0.93946918  0.49861477    -2.17600
O429        O  0.05343888  0.58522685  0.40578892    -0.66300
O430        O  0.08762303  0.54743012  0.44824318    -0.50800
C431        C  0.08043258  0.57605753  0.41763213     0.72500
O432        O  0.45169787  0.59003551  0.08936237    -0.59200
O433        O  0.41715511  0.55173504  0.04796598    -0.51100
C434        C  0.42461672  0.58103627  0.07752939     0.74300
O435        O  0.05240490  0.58828252  0.09306977    -0.70600
O436        O  0.08681383  0.55014870  0.05162473    -0.49200
C437        C  0.07948765  0.57915212  0.08164329     0.75700
O438        O  0.45248155  0.58563862  0.40388418    -0.65900
O439        O  0.41777820  0.54852132  0.44653677    -0.53100
C440        C  0.42530821  0.57671585  0.41542405     0.74100
Zr441      Zr  0.00270644  0.56299371  0.42600190     2.77500
O442        O  0.00193488  0.63892227  0.42056462    -0.96600
O443        O  0.00290822  0.55701220  0.33762135    -0.77500
Zr444      Zr  0.00210725  0.56563114  0.07154956     2.70100
O445        O  0.00334206  0.64165130  0.07095121    -0.78700
O446        O  0.99998847  0.56301007  0.16010307    -0.97800
Zr447      Zr  0.44563525  0.50298624  0.99925896     2.21500
Zr448      Zr  0.05917079  0.00241029  0.49935143     2.11100
O449        O  0.03073165  0.56541084  0.99898816    -2.46500
O450        O  0.47408550  0.56564325  0.99841908    -0.78500
O451        O  0.03191032  0.00336850  0.42506400    -0.70700
O452        O  0.47282540  0.50345404  0.07372412    -2.31700
O453        O  0.47350100  0.50084313  0.42578253    -2.27900
O454        O  0.03185087  0.00153798  0.07405244    -0.72500
H455        H  0.04362933  0.91507541  0.99920797     0.79500
H456        H  0.45954780  0.50378740  0.10146635     0.80600
H457        H  0.04350087  0.58919210  0.49881508     0.82800
H458        H  0.46057083  0.50029829  0.39772854     0.80500
H459        H  0.50210613  0.91393271  0.17125141     0.43500
H460        H  0.01837698  0.54812147  0.16983615     0.42500
H461        H  0.50329719  0.65050132  0.04207478     0.42100
H462        H  0.01828751  0.64839786  0.44207912     0.40100
H463        H  0.02075603  0.54004723  0.33011485     0.43200
H464        H  0.49820366  0.92295465  0.32520518     0.38000
H465        H  0.51227092  0.85547031  0.44762107     0.44100
H466        H  0.01821115  0.85457024  0.05415293     0.40500
H467        H  0.00904419  0.64530815  0.38718866     0.45400
H468        H  0.52266058  0.95779996  0.32960617     0.44200
H469        H  0.51073402  0.85606636  0.10644896     0.44300
H470        H  0.00337739  0.59225236  0.17041721     0.44700
O471        O  0.30257194  0.83930059  0.15939475    -0.74200
O472        O  0.33699805  0.79924466  0.19825372    -0.53100
C473        C  0.32966405  0.82914506  0.16942570     0.79500
O474        O  0.20175447  0.83642585  0.34442858    -0.58800
O475        O  0.16711087  0.79854548  0.30287899    -0.51800
C476        C  0.17461776  0.82727214  0.33314126     0.71500
O477        O  0.30260843  0.83699883  0.34359295    -0.73400
O478        O  0.33703832  0.79856230  0.30280645    -0.53900
C479        C  0.32971701  0.82752149  0.33285852     0.77500
O480        O  0.20175767  0.83801774  0.15754186    -0.58500
O481        O  0.16725852  0.79983217  0.19969651    -0.51600
C482        C  0.17466651  0.82871854  0.16928116     0.74100
Zr483      Zr  0.25216412  0.81508559  0.17836483     2.54700
O484        O  0.25163830  0.89108315  0.17725984    -0.79100
O485        O  0.25182724  0.81166339  0.08981345    -0.92500
Zr486      Zr  0.25226424  0.81374214  0.32362568     2.64700
O487        O  0.25322481  0.88975974  0.32856643    -0.97500
O488        O  0.25196922  0.80774280  0.41196048    -0.79500
O489        O  0.28083484  0.81517854  0.25083012    -0.82900
O490        O  0.22382437  0.81549438  0.25113465    -2.17600
O491        O  0.20174043  0.66926316  0.15602744    -0.66300
O492        O  0.16728062  0.70598286  0.19910235    -0.50800
C493        C  0.17465346  0.67793485  0.16796485     0.72500
O494        O  0.30272172  0.66467253  0.33982149    -0.59200
O495        O  0.33716139  0.70467570  0.30031482    -0.51100
C496        C  0.32983634  0.67447400  0.32889637     0.74300
O497        O  0.20215891  0.66660239  0.34353650    -0.70600
O498        O  0.16773638  0.70573320  0.30320832    -0.49200
C499        C  0.17510103  0.67638478  0.33281197     0.75700
O500        O  0.30279377  0.66941415  0.15399011    -0.65900
O501        O  0.33715004  0.70543208  0.19846461    -0.53100
C502        C  0.32985678  0.67795157  0.16649355     0.74100
Zr503      Zr  0.25233245  0.69126224  0.17692751     2.77500
O504        O  0.25358693  0.61518223  0.17597042    -0.96600
O505        O  0.25057753  0.69586550  0.08846597    -0.77500
Zr506      Zr  0.25244629  0.68995099  0.32242248     2.70100
O507        O  0.25189972  0.61402256  0.32726560    -0.78700
O508        O  0.25388902  0.69584433  0.41070608    -0.97800
Zr509      Zr  0.30905634  0.75239505  0.25011571     2.21500
Zr510      Zr  0.19549007  0.75250924  0.25078042     2.11100
O511        O  0.22393466  0.68971031  0.24985145    -2.46500
O512        O  0.28081272  0.68957992  0.24951058    -0.78500
O513        O  0.22307890  0.75304311  0.17656389    -0.70700
O514        O  0.28143818  0.75194165  0.32434012    -2.31700
O515        O  0.28132986  0.75333925  0.17616754    -2.27900
O516        O  0.22316894  0.75167291  0.32470739    -0.72500
H517        H  0.21110860  0.83982368  0.25134427     0.79500
H518        H  0.29451682  0.75163928  0.35222958     0.80600
H519        H  0.21115166  0.66531939  0.24976153     0.82800
H520        H  0.29441094  0.75373350  0.14822644     0.80500
H521        H  0.25821634  0.83568001  0.42358750     0.43500
H522        H  0.23456962  0.70872571  0.41953297     0.42500
H523        H  0.25960472  0.60482130  0.29525167     0.42100
H524        H  0.23663832  0.60631633  0.19678536     0.40100
H525        H  0.27038260  0.70693818  0.07879397     0.43200
H526        H  0.27171900  0.80065736  0.08087141     0.38000
H527        H  0.24949865  0.89901086  0.21189848     0.44100
H528        H  0.23623296  0.89918873  0.30840941     0.40500
H529        H  0.24752016  0.60749728  0.14252667     0.45400
H530        H  0.25230850  0.84122336  0.07914097     0.44200
H531        H  0.24721546  0.89612939  0.36243924     0.44300
H532        H  0.25224450  0.66667852  0.42254536     0.44700
C533        C  0.15657505  0.61477090  0.12224234     0.24700
C534        C  0.15036113  0.65321756  0.14495823    -0.23400
C535        C  0.12059695  0.66721895  0.14623120     0.19600
C536        C  0.09767770  0.64318421  0.12601602     0.24600
C537        C  0.10384030  0.60441239  0.10387378    -0.23400
C538        C  0.13369135  0.59077672  0.10197043     0.19500
F539        F  0.14097963  0.55386784  0.08089874    -0.13300
F540        F  0.18483131  0.59971201  0.12012192    -0.15700
F541        F  0.06952302  0.65869930  0.12715899    -0.15700
F542        F  0.11354389  0.70474230  0.16606235    -0.13300
C543        C  0.13273278  0.60449271  0.41882210     0.24700
C544        C  0.10483564  0.60110191  0.39550058    -0.23400
C545        C  0.10014194  0.62340533  0.35194517     0.19600
C546        C  0.12276641  0.64824976  0.33205462     0.24600
C547        C  0.15074458  0.65136339  0.35512342    -0.23400
C548        C  0.15538747  0.62930793  0.39887325     0.19500
F549        F  0.18163653  0.63248590  0.42322751    -0.13300
F550        F  0.13794727  0.58486907  0.46187158    -0.15700
F551        F  0.11733489  0.66848468  0.28947156    -0.15700
F552        F  0.07373859  0.62082515  0.32794539    -0.13300
C553        C  0.10096470  0.88503622  0.15132009     0.24700
C554        C  0.10457814  0.90241677  0.10451914    -0.23400
C555        C  0.13135711  0.89502292  0.07905794     0.19600
C556        C  0.15399668  0.87096557  0.09996844     0.24600
C557        C  0.15039227  0.85355562  0.14675278    -0.23400
C558        C  0.12356843  0.86083881  0.17216569     0.19500
F559        F  0.11942857  0.84546208  0.21782926    -0.13300
F560        F  0.07576583  0.89218103  0.17750139    -0.15700
F561        F  0.17913004  0.86368587  0.07368192    -0.15700
F562        F  0.13531937  0.90986528  0.03311272    -0.13300
C563        C  0.40355915  0.62192483  0.14725902     0.24700
C564        C  0.40043154  0.60623858  0.09974132    -0.23400
C565        C  0.37413461  0.61517867  0.07375040     0.19600
C566        C  0.35133199  0.63879021  0.09513928     0.24600
C567        C  0.35432828  0.65404037  0.14296571    -0.23400
C568        C  0.38084648  0.64554915  0.16858304     0.19500
F569        F  0.38452775  0.65897679  0.21503466    -0.13300
F570        F  0.42831447  0.61333244  0.17384459    -0.15700
F571        F  0.32663077  0.64760640  0.06851967    -0.15700
F572        F  0.37080382  0.60208867  0.02708024    -0.13300
C573        C  0.38426058  0.84433395  0.34487278     0.24700
C574        C  0.35408913  0.85204878  0.35634379    -0.23400
C575        C  0.34753985  0.88418038  0.38978013     0.19600
C576        C  0.37035498  0.90802322  0.41054931     0.24600
C577        C  0.40050770  0.90052423  0.39868261    -0.23400
C578        C  0.40706413  0.86799446  0.36585829     0.19500
F579        F  0.43564095  0.85881787  0.35346490    -0.13300
F580        F  0.39205372  0.81407040  0.31279864    -0.15700
F581        F  0.36259741  0.93854517  0.44233524    -0.15700
F582        F  0.31897073  0.89314416  0.40246997    -0.13300
C583        C  0.37132788  0.58630682  0.39251914     0.24700
C584        C  0.40101856  0.60104971  0.39189316    -0.23400
C585        C  0.40705603  0.63992952  0.36966482     0.19600
C586        C  0.38405938  0.66366575  0.34943819     0.24600
C587        C  0.35431197  0.64912534  0.35046050    -0.23400
C588        C  0.34836262  0.60984440  0.37182932     0.19500
F589        F  0.32034630  0.59353888  0.37210190    -0.13300
F590        F  0.36433654  0.54871157  0.41262403    -0.15700
F591        F  0.39109352  0.70135987  0.32960089    -0.15700
F592        F  0.43518090  0.65582999  0.36843002    -0.13300
C593        C  0.15597890  0.89352604  0.37130856     0.24700
C594        C  0.15044053  0.85231613  0.35568273    -0.23400
C595        C  0.12139698  0.83586897  0.36064796     0.19600
C596        C  0.09844958  0.86013840  0.38023124     0.24600
C597        C  0.10399039  0.90140468  0.39566555    -0.23400
C598        C  0.13308421  0.91770214  0.39111987     0.19500
F599        F  0.13937614  0.95750312  0.40480951    -0.13300
F600        F  0.18344443  0.91107021  0.36635128    -0.15700
F601        F  0.07096040  0.84264470  0.38529014    -0.15700
F602        F  0.11525097  0.79582667  0.34775830    -0.13300
C603        C  0.37122448  0.90374731  0.08522601     0.24700
C604        C  0.40066921  0.90107755  0.10289636    -0.23400
C605        C  0.40650422  0.87436687  0.14258266     0.19600
C606        C  0.38356472  0.85113378  0.16409211     0.24600
C607        C  0.35410710  0.85371435  0.14635485    -0.23800
C608        C  0.34831422  0.88028983  0.10649981     0.19500
F609        F  0.32052336  0.88325085  0.08720807    -0.13300
F610        F  0.36444156  0.92851662  0.04662837    -0.15700
F611        F  0.39037305  0.82658238  0.20288140    -0.15700
F612        F  0.43439034  0.87102896  0.16143548    -0.13300
O613        O  0.45234165  0.91667044  0.90970843    -0.74200
O614        O  0.41785454  0.95587863  0.94934389    -0.53100
C615        C  0.42521999  0.92607099  0.92050680     0.79500
O616        O  0.05270027  0.91812807  0.59354034    -0.58800
O617        O  0.08719159  0.95647228  0.55212196    -0.51800
C618        C  0.07984171  0.92767062  0.58263116     0.71500
O619        O  0.45211472  0.91454209  0.58922539    -0.73400
O620        O  0.41779168  0.95556027  0.55157491    -0.53900
C621        C  0.42507249  0.92515214  0.57970319     0.77500
O622        O  0.05302253  0.91768092  0.90722782    -0.58500
O623        O  0.08761686  0.95642344  0.94779373    -0.51600
C624        C  0.08015594  0.92715705  0.91823924     0.74100
Zr625      Zr  0.50267756  0.94177798  0.92653950     2.54700
O626        O  0.50248142  0.86613625  0.91807889    -0.79100
O627        O  0.00193536  0.95083110  0.83868350    -0.92500
Zr628      Zr  0.50245933  0.93908906  0.57148945     2.64700
O629        O  0.50223495  0.86293163  0.57392103    -0.97500
O630        O  0.00080368  0.94361725  0.65967391    -0.79500
O631        O  0.47412684  0.94023346  0.99925161    -0.82900
O632        O  0.03093109  0.93942158  0.99934009    -2.17600
O633        O  0.05320565  0.58628288  0.90580193    -0.66300
O634        O  0.08736551  0.54786984  0.94756226    -0.50800
C635        C  0.08018681  0.57679260  0.91732369     0.72500
O636        O  0.45159645  0.59057284  0.58831864    -0.59200
O637        O  0.41701540  0.55166651  0.54774727    -0.51100
C638        C  0.42449184  0.58128053  0.57683847     0.74300
O639        O  0.05238430  0.58803912  0.59281477    -0.70600
O640        O  0.08688407  0.54945859  0.55220801    -0.49200
C641        C  0.07951253  0.57873238  0.58185229     0.75700
O642        O  0.45259849  0.58668976  0.90451024    -0.65900
O643        O  0.41782938  0.54892139  0.94634023    -0.53100
C644        C  0.42542747  0.57745633  0.91567896     0.74100
Zr645      Zr  0.00261002  0.56359121  0.92610180     2.77500
O646        O  0.00204386  0.63963282  0.92259344    -0.96600
O647        O  0.00291361  0.55914733  0.83761560    -0.77500
Zr648      Zr  0.00208764  0.56478940  0.57182963     2.70100
O649        O  0.00313618  0.64071935  0.57548942    -0.78700
O650        O  0.00072177  0.55888753  0.66022161    -0.97800
Zr651      Zr  0.44557034  0.50275908  0.49957627     2.21500
Zr652      Zr  0.05930121  0.00245381  0.99979721     2.11100
O653        O  0.03067447  0.56484343  0.49913682    -2.46500
O654        O  0.47404162  0.56535983  0.49800249    -0.78500
O655        O  0.03186055  0.00341765  0.92567418    -0.70700
O656        O  0.47278476  0.50387331  0.57394308    -2.31700
O657        O  0.47357409  0.50153937  0.92545589    -2.27900
O658        O  0.03158567  0.00152770  0.57344447    -0.72500
H659        H  0.04350505  0.91514583  0.49859086     0.79500
H660        H  0.45951893  0.50446552  0.60168799     0.80600
H661        H  0.04357916  0.58973536  0.99865276     0.82800
H662        H  0.46065387  0.50116449  0.89738495     0.80500
H663        H  0.50128655  0.91443506  0.67118860     0.43500
H664        H  0.01845451  0.54196049  0.66856316     0.42500
H665        H  0.50350326  0.64992388  0.53788002     0.42100
H666        H  0.01818709  0.64863094  0.94479070     0.40100
H667        H  0.02192346  0.54506432  0.82957292     0.43200
H668        H  0.50035839  0.92169932  0.82571331     0.38000
H669        H  0.51096668  0.85573000  0.94906334     0.44100
H670        H  0.01778204  0.85530741  0.54913527     0.40500
H671        H  0.00952572  0.64664091  0.88960004     0.45400
H672        H  0.52212987  0.95989351  0.82987433     0.44200
H673        H  0.51273290  0.85542782  0.60438159     0.44300
H674        H  0.00564132  0.58730586  0.67193435     0.44700
O675        O  0.30270067  0.83921618  0.66020940    -0.74200
O676        O  0.33715881  0.79840165  0.69780764    -0.53100
C677        C  0.32979328  0.82870578  0.66959827     0.79500
O678        O  0.20229785  0.83709173  0.84468160    -0.58800
O679        O  0.16757742  0.79899339  0.80354735    -0.51800
C680        C  0.17513895  0.82791969  0.83356149     0.71500
O681        O  0.30301322  0.83651430  0.84386573    -0.73400
O682        O  0.33736512  0.79854470  0.80230521    -0.53900
C683        C  0.33010547  0.82726576  0.83272527     0.77500
O684        O  0.20196724  0.83796015  0.65879122    -0.58500
O685        O  0.16745554  0.79904328  0.69948660    -0.51600
C686        C  0.17481256  0.82845154  0.66975376     0.74100
Zr687      Zr  0.25235002  0.81481142  0.67888586     2.54700
O688        O  0.25190932  0.89079304  0.67733448    -0.79100
O689        O  0.25227797  0.81181619  0.59031719    -0.92500
Zr690      Zr  0.25260893  0.81342973  0.82403750     2.64700
O691        O  0.25402435  0.88940105  0.82922481    -0.97500
O692        O  0.25236715  0.80641444  0.91225920    -0.79500
O693        O  0.28111083  0.81491996  0.75118495    -0.82900
O694        O  0.22406724  0.81526716  0.75167461    -2.17600
O695        O  0.20159406  0.66923748  0.65654807    -0.66300
O696        O  0.16722706  0.70560627  0.70015560    -0.50800
C697        C  0.17454104  0.67770540  0.66877969     0.72500
O698        O  0.30293562  0.66466698  0.84012737    -0.59200
O699        O  0.33735798  0.70469168  0.80046059    -0.51100
C700        C  0.33002202  0.67458268  0.82912797     0.74300
O701        O  0.20217862  0.66624186  0.84324070    -0.70600
O702        O  0.16777075  0.70633506  0.80413732    -0.49200
C703        C  0.17513005  0.67652159  0.83304435     0.75700
O704        O  0.30252669  0.66886253  0.65423584    -0.65900
O705        O  0.33702260  0.70481993  0.69850362    -0.53100
C706        C  0.32962110  0.67733233  0.66660638     0.74100
Zr707      Zr  0.25219034  0.69103093  0.67731810     2.77500
O708        O  0.25265252  0.61494818  0.67503435    -0.96600
O709        O  0.25007761  0.69618205  0.58896619    -0.77500
Zr710      Zr  0.25258040  0.68963286  0.82270524     2.70100
O711        O  0.25286961  0.61370519  0.82743978    -0.78700
O712        O  0.25358455  0.69479031  0.91106188    -0.97800
Zr713      Zr  0.30918121  0.75204954  0.75016253     2.21500
Zr714      Zr  0.19562196  0.75242589  0.75136616     2.11100
O715        O  0.22390004  0.68946030  0.75032682    -2.46500
O716        O  0.28085296  0.68925316  0.74970779    -0.78500
O717        O  0.22311048  0.75292146  0.67708377    -0.70700
O718        O  0.28167634  0.75155382  0.82450122    -2.31700
O719        O  0.28134119  0.75297164  0.67636094    -2.27900
O720        O  0.22340406  0.75145535  0.82519514    -0.72500
H721        H  0.21138640  0.83963072  0.75189856     0.79500
H722        H  0.29480248  0.75122126  0.85232802     0.80600
H723        H  0.21107813  0.66511443  0.75023691     0.82800
H724        H  0.29436308  0.75334468  0.64834720     0.80500
H725        H  0.25334514  0.83547099  0.92441944     0.43500
H726        H  0.23437069  0.70805232  0.91973076     0.42500
H727        H  0.24934955  0.60447260  0.79356706     0.42100
H728        H  0.23624737  0.60614002  0.69701189     0.40100
H729        H  0.26881938  0.71056080  0.57953105     0.43200
H730        H  0.27286799  0.80370801  0.58131575     0.38000
H731        H  0.24527669  0.89881857  0.71039982     0.44100
H732        H  0.23744280  0.89908609  0.80833446     0.40500
H733        H  0.24552492  0.60777813  0.64199593     0.45400
H734        H  0.25066005  0.84134800  0.57988554     0.44200
H735        H  0.24750892  0.89582698  0.86283128     0.44300
H736        H  0.25151540  0.66557017  0.92254399     0.44700
C737        C  0.15662742  0.61491458  0.62209728     0.24700
C738        C  0.15027306  0.65291686  0.64574337    -0.23400
C739        C  0.12040515  0.66634743  0.64794720     0.19600
C740        C  0.09755098  0.64235344  0.62744046     0.24600
C741        C  0.10384855  0.60406458  0.60422660    -0.23400
C742        C  0.13379888  0.59087940  0.60169140     0.19500
F743        F  0.14124966  0.55429106  0.58002602    -0.13300
F744        F  0.18495935  0.60020120  0.61938175    -0.15700
F745        F  0.06928139  0.65734418  0.62970008    -0.15700
F746        F  0.11314044  0.70316577  0.66930138    -0.13300
C747        C  0.13247575  0.60502631  0.91877152     0.24700
C748        C  0.10463294  0.60172591  0.89526703    -0.23400
C749        C  0.10013427  0.62372638  0.85145243     0.19600
C750        C  0.12289205  0.64834361  0.83160133     0.24600
C751        C  0.15073236  0.65157100  0.85508249    -0.23400
C752        C  0.15522203  0.62967713  0.89892547     0.19500
F753        F  0.18145241  0.63274942  0.92334938    -0.13300
F754        F  0.13759903  0.58529951  0.96177887    -0.15700
F755        F  0.11781459  0.66805939  0.78856075    -0.15700
F756        F  0.07388713  0.62082791  0.82704385    -0.13300
C757        C  0.09768507  0.87177142  0.64071618     0.24700
C758        C  0.10421088  0.90304679  0.60590820    -0.23400
C759        C  0.13429438  0.90946580  0.59248731     0.19600
C760        C  0.15701750  0.88534864  0.61296216     0.24600
C761        C  0.15046168  0.85369807  0.64729517    -0.23400
C762        C  0.12038315  0.84738433  0.66085652     0.19500
F763        F  0.11260971  0.81776517  0.69408575    -0.13300
F764        F  0.06925291  0.86450233  0.65577809    -0.15700
F765        F  0.18552012  0.89331175  0.59875395    -0.15700
F766        F  0.14205978  0.93899744  0.55914392    -0.13300
C767        C  0.40337790  0.62166989  0.64677431     0.24700
C768        C  0.40026711  0.60631064  0.59913730    -0.23400
C769        C  0.37385756  0.61506608  0.57334882     0.19600
C770        C  0.35098725  0.63837649  0.59501353     0.24600
C771        C  0.35402236  0.65341696  0.64292786    -0.23400
C772        C  0.38058121  0.64489751  0.66841251     0.19500
F773        F  0.38423194  0.65791941  0.71502653    -0.13300
F774        F  0.42820483  0.61308359  0.67317574    -0.15700
F775        F  0.32619466  0.64713263  0.56858590    -0.15700
F776        F  0.37047672  0.60208540  0.52664453    -0.13300
C777        C  0.38468626  0.84419149  0.84469231     0.24700
C778        C  0.35450470  0.85181340  0.85619441    -0.23400
C779        C  0.34794495  0.88388385  0.88970800     0.19600
C780        C  0.37072048  0.90795918  0.91024087     0.24600
C781        C  0.40088193  0.90055345  0.89840134    -0.23400
C782        C  0.40747138  0.86804538  0.86552596     0.19500
F783        F  0.43605519  0.85905286  0.85297953    -0.13300
F784        F  0.39250375  0.81367334  0.81296033    -0.15700
F785        F  0.36290853  0.93864503  0.94176553    -0.15700
F786        F  0.31939498  0.89244392  0.90288049    -0.13300
C787        C  0.37215165  0.58516012  0.88848688     0.24700
C788        C  0.40122004  0.60177255  0.89213673    -0.23400
C789        C  0.40670222  0.64234214  0.87409959     0.19600
C790        C  0.38363688  0.66594053  0.85387846     0.24600
C791        C  0.35449339  0.64948076  0.85069428    -0.23400
C792        C  0.34915424  0.60856780  0.86772944     0.19500
F793        F  0.32179094  0.59061289  0.86338574    -0.13300
F794        F  0.36593241  0.54583864  0.90421513    -0.15700
F795        F  0.38985784  0.70538795  0.83846185    -0.15700
F796        F  0.43424603  0.65993203  0.87723703    -0.13300
C797        C  0.15641688  0.89435909  0.87151045     0.24700
C798        C  0.15097044  0.85304911  0.85609806    -0.23400
C799        C  0.12198863  0.83646158  0.86136200     0.19600
C800        C  0.09900823  0.86063309  0.88098685     0.24600
C801        C  0.10442604  0.90197306  0.89620377    -0.23400
C802        C  0.13346823  0.91846198  0.89137210     0.19500
F803        F  0.13964426  0.95837088  0.90479651    -0.13300
F804        F  0.18381940  0.91205622  0.86629280    -0.15700
F805        F  0.07159184  0.84296943  0.88625084    -0.15700
F806        F  0.11592680  0.79634657  0.84869943    -0.13300
C807        C  0.37104183  0.90430121  0.58625767     0.24700
C808        C  0.40067219  0.90062072  0.60281411    -0.23400
C809        C  0.40668683  0.87309828  0.64170021     0.19600
C810        C  0.38377659  0.84992905  0.66333092     0.24600
C811        C  0.35417053  0.85335566  0.64652223    -0.23800
C812        C  0.34815994  0.88091070  0.60766177     0.19500
F813        F  0.32015466  0.88500924  0.58951869    -0.13300
F814        F  0.36399771  0.93010896  0.54871701    -0.15700
F815        F  0.39077322  0.82460725  0.70135539    -0.15700
F816        F  0.43473150  0.86881595  0.65964831    -0.13300
O817        O  0.95196930  0.41554944  0.40945573    -0.74200
O818        O  0.91754607  0.45577892  0.44804210    -0.53100
C819        C  0.92487767  0.42593293  0.41926164     0.79500
O820        O  0.55238658  0.41816042  0.09469341    -0.58800
O821        O  0.58703232  0.45596920  0.05275165    -0.51800
C822        C  0.57955222  0.42708046  0.08305441     0.71500
O823        O  0.95141375  0.41829535  0.09265460    -0.73400
O824        O  0.91719295  0.45713208  0.05190803    -0.53900
C825        C  0.92437974  0.42792651  0.08170871     0.77500
O826        O  0.55272485  0.41615213  0.40874717    -0.58500
O827        O  0.58715988  0.45449674  0.45011837    -0.51600
C828        C  0.57981353  0.42552546  0.42004980     0.74100
Zr829      Zr  0.00235298  0.43933154  0.42879933     2.54700
O830        O  0.00281183  0.36332482  0.42566249    -0.79100
O831        O  0.50195821  0.44222060  0.34081408    -0.92500
Zr832      Zr  0.00196207  0.44192851  0.07432424     2.64700
O833        O  0.00078236  0.36608393  0.08235815    -0.97500
O834        O  0.50019824  0.45300153  0.16158907    -0.79500
O835        O  0.97368180  0.43959332  0.50137019    -0.82900
O836        O  0.53034863  0.43931183  0.50229696    -2.17600
O837        O  0.55323245  0.08746896  0.40687252    -0.66300
O838        O  0.58749180  0.04890899  0.44826545    -0.50800
C839        C  0.58025663  0.07802695  0.41829495     0.72500
O840        O  0.95238250  0.08697466  0.09435537    -0.59200
O841        O  0.91781343  0.04857120  0.05333597    -0.51100
C842        C  0.92524958  0.07746109  0.08343558     0.74300
O843        O  0.55310688  0.08594089  0.09462177    -0.70600
O844        O  0.58747484  0.04906852  0.05166726    -0.49200
C845        C  0.58015533  0.07727860  0.08264302     0.75700
O846        O  0.95234354  0.09016075  0.40973542    -0.65900
O847        O  0.91779783  0.05039495  0.44922743    -0.53100
C848        C  0.92519513  0.08053169  0.42059582     0.74100
Zr849      Zr  0.50265809  0.06497543  0.42803856     2.77500
O850        O  0.50280342  0.14103220  0.42466208    -0.96600
O851        O  0.50176176  0.05898401  0.33968153    -0.77500
Zr852      Zr  0.50282634  0.06324549  0.07373270     2.70100
O853        O  0.50338827  0.13915582  0.07794296    -0.78700
O854        O  0.50322060  0.05619988  0.16202267    -0.97800
Zr855      Zr  0.94587432  0.00259550  0.00071508     2.21500
Zr856      Zr  0.55894911  0.50201826  0.50067963     2.11100
O857        O  0.53105823  0.06506644  0.00072876    -2.46500
O858        O  0.97424537  0.06529440  0.00107312    -0.78500
O859        O  0.53174661  0.50071983  0.42623748    -0.70700
O860        O  0.97350020  0.00135499  0.07469389    -2.31700
O861        O  0.97324447  0.00328115  0.42537899    -2.27900
O862        O  0.53139262  0.50350919  0.07464901    -0.72500
H863        H  0.54316981  0.41500992  0.00197167     0.79500
H864        H  0.96046172  0.00095285  0.10273118     0.80600
H865        H  0.54375166  0.08915542  0.50109784     0.82800
H866        H  0.96009838  0.00350304  0.39757595     0.80500
H867        H  0.98633863  0.43184680  0.17439780     0.43500
H868        H  0.51852907  0.03470036  0.16867375     0.42500
H869        H  0.99915058  0.14897157  0.04660389     0.42100
H870        H  0.52038038  0.14971805  0.44395569     0.40100
H871        H  0.51910188  0.04117027  0.33171247     0.43200
H872        H  0.00185282  0.41413852  0.32946583     0.38000
H873        H  0.00374388  0.35446205  0.46018845     0.44100
H874        H  0.51660633  0.35535652  0.06301579     0.40500
H875        H  0.50814345  0.14790137  0.39054986     0.45400
H876        H  0.02198761  0.45418783  0.33144298     0.44200
H877        H  0.00819310  0.36038515  0.11564545     0.44300
H878        H  0.51224538  0.08257834  0.17376878     0.44700
O879        O  0.80238623  0.33688312  0.15597363    -0.74200
O880        O  0.83692242  0.29889630  0.19714032    -0.53100
C881        C  0.82946721  0.32804469  0.16741335     0.79500
O882        O  0.70181271  0.33938629  0.33993601    -0.58800
O883        O  0.66730063  0.30000443  0.30013984    -0.51800
C884        C  0.67469223  0.32947325  0.32952917     0.71500
O885        O  0.80252251  0.34024711  0.33955107    -0.73400
O886        O  0.83701303  0.30145245  0.29908690    -0.53900
C887        C  0.82960509  0.33074909  0.32858335     0.77500
O888        O  0.70185141  0.33518287  0.15385101    -0.58500
O889        O  0.66730470  0.29756226  0.19629391    -0.51600
C890        C  0.67471152  0.32613141  0.16551078     0.74100
Zr891      Zr  0.75222944  0.31181489  0.17398534     2.54700
O892        O  0.75310170  0.38689451  0.15980406    -0.79100
O893        O  0.75154930  0.29833270  0.08682433    -0.92500
Zr894      Zr  0.75225500  0.31671794  0.31932767     2.64700
O895        O  0.75359412  0.39280582  0.31683378    -0.97500
O896        O  0.75155760  0.31545791  0.40791394    -0.79500
O897        O  0.78068817  0.31512174  0.24660453    -0.82900
O898        O  0.72389828  0.31557846  0.24673314    -2.17600
O899        O  0.70230695  0.16660112  0.15821838    -0.66300
O900        O  0.66778204  0.20484681  0.19917962    -0.50800
C901        C  0.67519494  0.17588219  0.16926458     0.72500
O902        O  0.80276731  0.16965320  0.34501829    -0.59200
O903        O  0.83729952  0.20758357  0.30315896    -0.51100
C904        C  0.82991647  0.17894944  0.33382135     0.74300
O905        O  0.70225442  0.16981002  0.34639435    -0.70600
O906        O  0.66793234  0.20672657  0.30320996    -0.49200
C907        C  0.67524049  0.17847635  0.33426004     0.75700
O908        O  0.80338584  0.16517322  0.16089972    -0.65900
O909        O  0.83786926  0.20475920  0.20061556    -0.53100
C910        C  0.83048832  0.17494593  0.17173386     0.74100
Zr911      Zr  0.75280087  0.18868863  0.17942217     2.77500
O912        O  0.75288567  0.11258561  0.17827584    -0.96600
O913        O  0.75383533  0.19219055  0.09088583    -0.77500
Zr914      Zr  0.75246354  0.19286069  0.32469866     2.70100
O915        O  0.75161053  0.11702584  0.33127629    -0.78700
O916        O  0.75318352  0.19981623  0.41287481    -0.97800
Zr917      Zr  0.80915752  0.25269891  0.24976597     2.21500
Zr918      Zr  0.69567807  0.25252853  0.24969299     2.11100
O919        O  0.72417939  0.18980977  0.25203485    -2.46500
O920        O  0.78112534  0.18965071  0.25221607    -0.78500
O921        O  0.72320064  0.24997209  0.17559399    -0.70700
O922        O  0.78135823  0.25500427  0.32367059    -2.31700
O923        O  0.78183345  0.25055763  0.17550985    -2.27900
O924        O  0.72323796  0.25463357  0.32363638    -0.72500
H925        H  0.71116834  0.33987956  0.24580754     0.79500
H926        H  0.79435198  0.25584057  0.35166101     0.80600
H927        H  0.71143229  0.16538825  0.25288842     0.82800
H928        H  0.79505964  0.24987896  0.14776508     0.80500
H929        H  0.75005131  0.34518296  0.41744642     0.43500
H930        H  0.73425932  0.21414229  0.42089801     0.42500
H931        H  0.75725887  0.10719108  0.29839718     0.42100
H932        H  0.73479971  0.10411695  0.19661555     0.40100
H933        H  0.73565257  0.20794838  0.08204717     0.43200
H934        H  0.77228477  0.29037162  0.07859980     0.38000
H935        H  0.75395362  0.39916651  0.19281876     0.44100
H936        H  0.73738535  0.40077176  0.29424134     0.40500
H937        H  0.74849498  0.10519192  0.14404925     0.45400
H938        H  0.74896960  0.32622025  0.07178512     0.44200
H939        H  0.74644304  0.40168094  0.34930277     0.44300
H940        H  0.75037223  0.17094885  0.42514362     0.44700
C941        C  0.65729825  0.11348905  0.12180180     0.24700
C942        C  0.65089003  0.15091661  0.14663981    -0.23400
C943        C  0.62087918  0.16356729  0.15056646     0.19600
C944        C  0.59802019  0.13954370  0.13034396     0.24600
C945        C  0.60444666  0.10217503  0.10538464    -0.23400
C946        C  0.63444538  0.08954802  0.10142059     0.19500
F947        F  0.64191756  0.05360532  0.07833364    -0.13300
F948        F  0.68570744  0.09931236  0.11766980    -0.15700
F949        F  0.56958863  0.15361428  0.13468399    -0.15700
F950        F  0.61338134  0.19957616  0.17350023    -0.13300
C951        C  0.63273605  0.10589812  0.41947430     0.24700
C952        C  0.60472192  0.10315817  0.39638014    -0.23400
C953        C  0.60014777  0.12569300  0.35296342     0.19600
C954        C  0.62293121  0.15028091  0.33312973     0.24600
C955        C  0.65088354  0.15325610  0.35634651    -0.23400
C956        C  0.65552543  0.13056895  0.39968024     0.19500
F957        F  0.68200328  0.13257739  0.42354580    -0.13300
F958        F  0.63801710  0.08555797  0.46204621    -0.15700
F959        F  0.61772190  0.17019284  0.29026419    -0.15700
F960        F  0.57376291  0.12341757  0.32888226    -0.13300
C961        C  0.59761858  0.36214040  0.12581328     0.24700
C962        C  0.60383510  0.40153449  0.10489474    -0.23400
C963        C  0.63373750  0.41532951  0.10321892     0.19600
C964        C  0.65665931  0.39062154  0.12206287     0.24600
C965        C  0.65042639  0.35132491  0.14318224    -0.23400
C966        C  0.62056684  0.33734815  0.14448233     0.19500
F967        F  0.61340147  0.29922794  0.16304412    -0.13300
F968        F  0.56934922  0.34681938  0.12733838    -0.15700
F969        F  0.68495300  0.40589021  0.12040740    -0.15700
F970        F  0.64100413  0.45315802  0.08396082    -0.13300
C971        C  0.90554515  0.12261756  0.15117901     0.24700
C972        C  0.90090849  0.10184971  0.10664016    -0.23400
C973        C  0.87282713  0.10525309  0.08398718     0.19600
C974        C  0.85008241  0.12887341  0.10512074     0.24600
C975        C  0.85477374  0.14992436  0.14941302    -0.23400
C976        C  0.88276840  0.14630723  0.17232028     0.19500
F977        F  0.88796416  0.16471846  0.21598071    -0.13300
F978        F  0.93195804  0.11937543  0.17501338    -0.15700
F979        F  0.82360387  0.13178288  0.08142169    -0.15700
F980        F  0.86745767  0.08666906  0.04049614    -0.13300
C981        C  0.88297571  0.33873636  0.35493654     0.24700
C982        C  0.85394153  0.35520439  0.35166149    -0.23400
C983        C  0.84846366  0.39525111  0.37079948     0.19600
C984        C  0.87135147  0.41806160  0.39288853     0.24600
C985        C  0.90047213  0.40171529  0.39585992    -0.23400
C986        C  0.90593695  0.36172926  0.37648885     0.19500
F987        F  0.93339590  0.34411194  0.37935101    -0.13300
F988        F  0.88917877  0.29978061  0.33838426    -0.15700
F989        F  0.86490894  0.45652129  0.41064980    -0.15700
F990        F  0.82103792  0.41293755  0.36743372    -0.13300
C991        C  0.87060582  0.09498268  0.40604392     0.24700
C992        C  0.90080888  0.10607591  0.39891612    -0.23400
C993        C  0.90733292  0.14217836  0.37121222     0.19600
C994        C  0.88446977  0.16592016  0.35060125     0.24600
C995        C  0.85428251  0.15453824  0.35726194    -0.23400
C996        C  0.84774951  0.11881236  0.38560746     0.19500
F997        F  0.81916788  0.10610374  0.39317849    -0.13300
F998        F  0.86283968  0.06069116  0.43247884    -0.15700
F999        F  0.89219802  0.20020198  0.32412515    -0.15700
F1000       F  0.93591209  0.15505530  0.36400477    -0.13300
C1001       C  0.65624653  0.39373414  0.37276570     0.24700
C1002       C  0.65041477  0.35395427  0.35287820    -0.23400
C1003       C  0.62112154  0.33795124  0.35561793     0.19600
C1004       C  0.59834014  0.36105927  0.37747465     0.24600
C1005       C  0.60414155  0.40092479  0.39709170    -0.23400
C1006       C  0.63347574  0.41679969  0.39470881     0.19500
F1007       F  0.64020858  0.45515125  0.41272918    -0.13300
F1008       F  0.68392190  0.41101659  0.37019846    -0.15700
F1009       F  0.57069218  0.34371401  0.38035641    -0.15700
F1010       F  0.61444671  0.29941880  0.33808133    -0.13300
C1011       C  0.87013800  0.40790364  0.08887628     0.24700
C1012       C  0.89991482  0.40327109  0.10453652    -0.23400
C1013       C  0.90611728  0.37388571  0.14144312     0.19600
C1014       C  0.88337549  0.34958125  0.16168143     0.24600
C1015       C  0.85369463  0.35367382  0.14545015    -0.23800
C1016       C  0.84742148  0.38327933  0.10879557     0.19500
F1017       F  0.81930928  0.38834206  0.09141621    -0.13300
F1018       F  0.86274487  0.43580928  0.05359509    -0.15700
F1019       F  0.89072032  0.32214926  0.19748702    -0.15700
F1020       F  0.93427073  0.36837550  0.15842067    -0.13300
O1021       O  0.95198013  0.41550031  0.91000956    -0.74200
O1022       O  0.91762259  0.45552676  0.94906262    -0.53100
C1023       C  0.92490859  0.42570465  0.92022266     0.79500
O1024       O  0.55213079  0.41828527  0.59586032    -0.58800
O1025       O  0.58671889  0.45571632  0.55329152    -0.51800
C1026       C  0.57928000  0.42701302  0.58386271     0.71500
O1027       O  0.95161194  0.41697342  0.59155128    -0.73400
O1028       O  0.91734211  0.45620153  0.55145042    -0.53900
C1029       C  0.92459088  0.42668091  0.58081244     0.77500
O1030       O  0.55286521  0.41684884  0.90826173    -0.58500
O1031       O  0.58732705  0.45521469  0.94957031    -0.51600
C1032       C  0.57995850  0.42621039  0.91955329     0.74100
Zr1033     Zr  0.00233908  0.43965310  0.92891033     2.54700
O1034       O  0.00338996  0.36359120  0.92788416    -0.79100
O1035       O  0.50196793  0.44421937  0.84014526    -0.92500
Zr1036     Zr  0.00198848  0.44131101  0.57427032     2.64700
O1037       O  0.00009282  0.36571763  0.58509001    -0.97500
O1038       O  0.50060566  0.45470791  0.66221294    -0.79500
O1039       O  0.97365623  0.43997078  0.00150289    -0.82900
O1040       O  0.53052524  0.43940600  0.00148511    -2.17600
O1041       O  0.55323465  0.08823159  0.90748258    -0.66300
O1042       O  0.58752690  0.04903949  0.94800803    -0.50800
C1043       C  0.58025868  0.07845917  0.91847996     0.72500
O1044       O  0.95228865  0.08688089  0.59390906    -0.59200
O1045       O  0.91773586  0.04901062  0.55218174    -0.51100
C1046       C  0.92517118  0.07760534  0.58268822     0.74300
O1047       O  0.55323025  0.08529196  0.59479086    -0.70600
O1048       O  0.58757913  0.04907475  0.55102716    -0.49200
C1049       C  0.58028203  0.07701182  0.58235149     0.75700
O1050       O  0.95229523  0.09005983  0.91027935    -0.65900
O1051       O  0.91786780  0.05072160  0.95064458    -0.53100
C1052       C  0.92518897  0.08064659  0.92162181     0.74100
Zr1053     Zr  0.50270319  0.06520977  0.92798155     2.77500
O1054       O  0.50283855  0.14120809  0.92222190    -0.96600
O1055       O  0.50145380  0.05661761  0.83992556    -0.77500
Zr1056     Zr  0.50280931  0.06273975  0.57389893     2.70100
O1057       O  0.50359148  0.13863847  0.57790218    -0.78700
O1058       O  0.50336794  0.05536627  0.66218199    -0.97800
Zr1059     Zr  0.94575649  0.00273187  0.49972340     2.21500
Zr1060     Zr  0.55901381  0.50231726  0.00053436     2.11100
O1061       O  0.53096625  0.06476373  0.50083310    -2.46500
O1062       O  0.97421128  0.06540894  0.50017788    -0.78500
O1063       O  0.53179710  0.50144760  0.92611551    -0.70700
O1064       O  0.97330609  0.00146441  0.57373668    -2.31700
O1065       O  0.97328081  0.00319723  0.92625313    -2.27900
O1066       O  0.53127577  0.50382225  0.57469984    -0.72500
H1067       H  0.54296722  0.41488539  0.50295580     0.79500
H1068       H  0.96024368  0.00107850  0.60174464     0.80600
H1069       H  0.54384350  0.08945879  0.00099320     0.82800
H1070       H  0.96009651  0.00340777  0.89849801     0.80500
H1071       H  0.98777123  0.43028769  0.67472066     0.43500
H1072       H  0.51711347  0.03181176  0.66846802     0.42500
H1073       H  0.00500084  0.14907124  0.54565565     0.42100
H1074       H  0.51843927  0.15046770  0.94529328     0.40100
H1075       H  0.52144300  0.04575103  0.83138548     0.43200
H1076       H  0.00298846  0.41333602  0.82995257     0.38000
H1077       H  0.99884715  0.35528162  0.96185442     0.44100
H1078       H  0.51516590  0.35578811  0.55997316     0.40500
H1079       H  0.51115964  0.14752618  0.88957593     0.45400
H1080       H  0.02070327  0.45559635  0.83113820     0.44200
H1081       H  0.00730268  0.36079057  0.61866116     0.44300
H1082       H  0.51430445  0.08030807  0.67388089     0.44700
O1083       O  0.80268307  0.33637656  0.65605701    -0.74200
O1084       O  0.83718084  0.29808944  0.69692402    -0.53100
C1085       C  0.82976133  0.32722697  0.66717444     0.79500
O1086       O  0.70175938  0.33921817  0.83992880    -0.58800
O1087       O  0.66722444  0.29958568  0.80051941    -0.51800
C1088       C  0.67463193  0.32922770  0.82970207     0.71500
O1089       O  0.80241631  0.34005187  0.84047935    -0.73400
O1090       O  0.83696999  0.30142844  0.79990934    -0.53900
C1091       C  0.82951980  0.33062374  0.82956141     0.77500
O1092       O  0.70191359  0.33520063  0.65404039    -0.58500
O1093       O  0.66737086  0.29759349  0.69649335    -0.51600
C1094       C  0.67475979  0.32612649  0.66567623     0.74100
Zr1095     Zr  0.75238073  0.31225124  0.67468299     2.54700
O1096       O  0.75327784  0.38780263  0.66452942    -0.79100
O1097       O  0.75175153  0.30200151  0.58687702    -0.92500
Zr1098     Zr  0.75224057  0.31620786  0.82002345     2.64700
O1099       O  0.75410093  0.39227276  0.81935548    -0.97500
O1100       O  0.75115387  0.31403274  0.90861309    -0.79500
O1101       O  0.78081090  0.31506682  0.74738232    -0.82900
O1102       O  0.72394774  0.31548458  0.74731783    -2.17600
O1103       O  0.70245928  0.16705614  0.65731037    -0.66300
O1104       O  0.66786809  0.20517526  0.69829857    -0.50800
C1105       C  0.67532492  0.17633086  0.66822339     0.72500
O1106       O  0.80277067  0.16891245  0.84460530    -0.59200
O1107       O  0.83735317  0.20746154  0.80363926    -0.51100
C1108       C  0.82993209  0.17850451  0.83387122     0.74300
O1109       O  0.70240030  0.16891690  0.84554349    -0.70600
O1110       O  0.66808266  0.20600345  0.80252058    -0.49200
C1111       C  0.67539711  0.17764934  0.83343060     0.75700
O1112       O  0.80346220  0.16540172  0.66047234    -0.65900
O1113       O  0.83791734  0.20437524  0.70109861    -0.53100
C1114       C  0.83055064  0.17491363  0.67169889     0.74100
Zr1115     Zr  0.75291624  0.18895865  0.67910133     2.77500
O1116       O  0.75252149  0.11284431  0.67871599    -0.96600
O1117       O  0.75431816  0.19246624  0.59056821    -0.77500
Zr1118     Zr  0.75254680  0.19237260  0.82430917     2.70100
O1119       O  0.75208888  0.11651884  0.83072316    -0.78700
O1120       O  0.75342102  0.19990335  0.91240601    -0.97800
Zr1121     Zr  0.80929789  0.25260924  0.75012830     2.21500
Zr1122     Zr  0.69571978  0.25240905  0.74962786     2.11100
O1123       O  0.72425611  0.18974000  0.75160968    -2.46500
O1124       O  0.78124918  0.18959766  0.75189320    -0.78500
O1125       O  0.72339504  0.25032856  0.67562839    -0.70700
O1126       O  0.78140377  0.25452648  0.82392140    -2.31700
O1127       O  0.78192367  0.25087549  0.67586756    -2.27900
O1128       O  0.72321751  0.25407132  0.82369265    -0.72500
H1129       H  0.71120516  0.33977867  0.74646138     0.79500
H1130       H  0.79435805  0.25522108  0.85196580     0.80600
H1131       H  0.71151539  0.16530706  0.75220527     0.82800
H1132       H  0.79517310  0.25027311  0.64815466     0.80500
H1133       H  0.74193881  0.34082510  0.91830660     0.43500
H1134       H  0.73370815  0.21183668  0.92072356     0.42500
H1135       H  0.75670485  0.10678269  0.79737938     0.42100
H1136       H  0.73448258  0.10473245  0.69739220     0.40100
H1137       H  0.73515892  0.20556869  0.58132799     0.43200
H1138       H  0.77012571  0.28608989  0.57959269     0.38000
H1139       H  0.74379681  0.39865189  0.69450204     0.44100
H1140       H  0.73825507  0.40082634  0.79637328     0.40500
H1141       H  0.74790020  0.10524277  0.64463233     0.45400
H1142       H  0.75557521  0.33014557  0.57314971     0.44200
H1143       H  0.74657329  0.40066287  0.85177619     0.44300
H1144       H  0.75257397  0.17088341  0.92492138     0.44700
C1145       C  0.65744854  0.11354786  0.62133369     0.24700
C1146       C  0.65105565  0.15136537  0.64539486    -0.23400
C1147       C  0.62106209  0.16419682  0.64876661     0.19600
C1148       C  0.59818531  0.13983801  0.62907082     0.24600
C1149       C  0.60459154  0.10211117  0.60484733    -0.23400
C1150       C  0.63458515  0.08935160  0.60130507     0.19500
F1151       F  0.64200435  0.05289783  0.57927911    -0.13300
F1152       F  0.68583490  0.09915810  0.61784071    -0.15700
F1153       F  0.56973456  0.15383503  0.63333536    -0.15700
F1154       F  0.61360649  0.20065759  0.67074272    -0.13300
C1155       C  0.63278144  0.10594426  0.91933092     0.24700
C1156       C  0.60470900  0.10341587  0.89643328    -0.23400
C1157       C  0.60011950  0.12574899  0.85290033     0.19600
C1158       C  0.62299052  0.14990455  0.83268145     0.24600
C1159       C  0.65103677  0.15259301  0.85563248    -0.23400
C1160       C  0.65567549  0.13013208  0.89912245     0.19500
F1161       F  0.68223016  0.13196617  0.92278124    -0.13300
F1162       F  0.63800804  0.08588469  0.96210377    -0.15700
F1163       F  0.61774926  0.16972677  0.78976964    -0.15700
F1164       F  0.57363602  0.12366242  0.82908402    -0.13300
C1165       C  0.59746120  0.36226919  0.62697106     0.24700
C1166       C  0.60363862  0.40144171  0.60548343    -0.23400
C1167       C  0.63359485  0.41494189  0.60288095     0.19600
C1168       C  0.65658671  0.39025561  0.62154884     0.24600
C1169       C  0.65039706  0.35122076  0.64333288    -0.23400
C1170       C  0.62048248  0.33747229  0.64542021     0.19500
F1171       F  0.61330478  0.29961045  0.66467655    -0.13300
F1172       F  0.56914859  0.34717899  0.62932397    -0.15700
F1173       F  0.68491311  0.40532231  0.61909101    -0.15700
F1174       F  0.64086724  0.45247261  0.58285142    -0.13300
C1175       C  0.90543925  0.12213313  0.65099567     0.24700
C1176       C  0.90086947  0.10195531  0.60605862    -0.23400
C1177       C  0.87292860  0.10600013  0.58313028     0.19600
C1178       C  0.85024473  0.12966702  0.60437660     0.24600
C1179       C  0.85483462  0.15002475  0.64914770    -0.23400
C1180       C  0.88272441  0.14586755  0.67225809     0.19500
F1181       F  0.88788591  0.16384300  0.71617762    -0.13300
F1182       F  0.93171193  0.11824091  0.67510764    -0.15700
F1183       F  0.82395185  0.13337383  0.58028780    -0.15700
F1184       F  0.86765361  0.08799183  0.53928330    -0.13300
C1185       C  0.88278760  0.33829612  0.85666697     0.24700
C1186       C  0.85384057  0.35500045  0.85291937    -0.23400
C1187       C  0.84847169  0.39519779  0.87177894     0.19600
C1188       C  0.87141846  0.41799374  0.89378101     0.24600
C1189       C  0.90044530  0.40139856  0.89714202    -0.23400
C1190       C  0.90578200  0.36121648  0.87826300     0.19500
F1191       F  0.93316709  0.34341997  0.88151454    -0.13300
F1192       F  0.88887183  0.29920301  0.84045287    -0.15700
F1193       F  0.86519190  0.45678143  0.91083068    -0.15700
F1194       F  0.82113584  0.41309556  0.86808447    -0.13300
C1195       C  0.87061420  0.09445451  0.90603212     0.24700
C1196       C  0.90077881  0.10613213  0.89988414    -0.23400
C1197       C  0.90725839  0.14264978  0.87288176     0.19600
C1198       C  0.88440791  0.16612594  0.85181766     0.24600
C1199       C  0.85426779  0.15414783  0.85746611    -0.23400
C1200       C  0.84776056  0.11803154  0.88515886     0.19500
F1201       F  0.81922403  0.10468744  0.89161493    -0.13300
F1202       F  0.86290608  0.05980942  0.93187359    -0.15700
F1203       F  0.89209437  0.20075647  0.82592954    -0.15700
F1204       F  0.93577277  0.15625619  0.86692939    -0.13300
C1205       C  0.65626910  0.39397929  0.87213780     0.24700
C1206       C  0.65040940  0.35391992  0.85297983    -0.23400
C1207       C  0.62116729  0.33785190  0.85644196     0.19600
C1208       C  0.59842818  0.36125005  0.87801973     0.24600
C1209       C  0.60424024  0.40142726  0.89674996    -0.23400
C1210       C  0.63354454  0.41731633  0.89384834     0.19500
F1211       F  0.64028575  0.45590482  0.91117735    -0.13300
F1212       F  0.68394002  0.41122592  0.86916737    -0.15700
F1213       F  0.57082301  0.34386585  0.88162680    -0.15700
F1214       F  0.61453822  0.29893851  0.84004177    -0.13300
C1215       C  0.87029143  0.40781633  0.58959009     0.24700
C1216       C  0.90023705  0.40181556  0.60354930    -0.23400
C1217       C  0.90665178  0.37119671  0.63900175     0.19600
C1218       C  0.88391054  0.34700467  0.65939124     0.24600
C1219       C  0.85402207  0.35251442  0.64483089    -0.23800
C1220       C  0.84756457  0.38341276  0.60974028     0.19500
F1221       F  0.81920047  0.39030693  0.59445719    -0.13300
F1222       F  0.86267821  0.43716712  0.55607835    -0.15700
F1223       F  0.89144925  0.31843724  0.69386515    -0.15700
F1224       F  0.93497945  0.36448939  0.65458529    -0.13300
O1225       O  0.95221819  0.91628181  0.40903337    -0.74200
O1226       O  0.91772452  0.95547227  0.44867892    -0.53100
C1227       C  0.92509847  0.92561730  0.41992092     0.79500
O1228       O  0.55312591  0.91752688  0.09324249    -0.58800
O1229       O  0.58774859  0.95553233  0.05120820    -0.51800
C1230       C  0.58024436  0.92677838  0.08169275     0.71500
O1231       O  0.95225801  0.91416100  0.08897724    -0.73400
O1232       O  0.91785462  0.95572498  0.05240953    -0.53900
C1233       C  0.92517064  0.92490162  0.07987967     0.77500
O1234       O  0.55276476  0.91754354  0.40631371    -0.58500
O1235       O  0.58732852  0.95532627  0.44816964    -0.51600
C1236       C  0.57987999  0.92651232  0.41798209     0.74100
Zr1237     Zr  0.00248050  0.94165342  0.42589431     2.54700
O1238       O  0.00284638  0.86608972  0.41647020    -0.79100
O1239       O  0.50172216  0.95130469  0.33841244    -0.92500
Zr1240     Zr  0.00261401  0.93961202  0.07217496     2.64700
O1241       O  0.00238321  0.86357031  0.07698107    -0.97500
O1242       O  0.50114384  0.94338111  0.16025154    -0.79500
O1243       O  0.97392457  0.93997223  0.49860351    -0.82900
O1244       O  0.53089128  0.93914524  0.49885820    -2.17600
O1245       O  0.55330025  0.58470279  0.40466566    -0.66300
O1246       O  0.58742920  0.54763082  0.44811590    -0.50800
C1247       C  0.58025217  0.57593232  0.41707617     0.72500
O1248       O  0.95188067  0.59024288  0.09023157    -0.59200
O1249       O  0.91745580  0.55145133  0.04920992    -0.51100
C1250       C  0.92483730  0.58090252  0.07862295     0.74300
O1251       O  0.55243238  0.58855002  0.09220555    -0.70600
O1252       O  0.58691075  0.55016996  0.05125963    -0.49200
C1253       C  0.57954184  0.57942020  0.08089055     0.75700
O1254       O  0.95235560  0.58588172  0.40478795    -0.65900
O1255       O  0.91762087  0.54869743  0.44738677    -0.53100
C1256       C  0.92517966  0.57692422  0.41633489     0.74100
Zr1257     Zr  0.50269410  0.56266934  0.42547218     2.77500
O1258       O  0.50259439  0.63870362  0.42153025    -0.96600
O1259       O  0.50237314  0.55666367  0.33710024    -0.77500
Zr1260     Zr  0.50208292  0.56520130  0.07162061     2.70100
O1261       O  0.50306640  0.64109701  0.07644647    -0.78700
O1262       O  0.50027525  0.55930262  0.15997760    -0.97800
Zr1263     Zr  0.94567687  0.50290849  0.99985134     2.21500
Zr1264     Zr  0.55933128  0.00205765  0.49988144     2.11100
O1265       O  0.53068004  0.56516677  0.99896510    -2.46500
O1266       O  0.97393093  0.56570233  0.99861656    -0.78500
O1267       O  0.53187607  0.00323027  0.42579800    -0.70700
O1268       O  0.97293525  0.50373607  0.07416969    -2.31700
O1269       O  0.97350394  0.50119381  0.42574343    -2.27900
O1270       O  0.53192644  0.00139346  0.07402663    -0.72500
H1271       H  0.54370748  0.91507929  0.99895058     0.79500
H1272       H  0.95972313  0.50412396  0.10199059     0.80600
H1273       H  0.54356783  0.58917462  0.49802404     0.82800
H1274       H  0.96057289  0.50082289  0.39768825     0.80500
H1275       H  0.00909857  0.91795047  0.17235008     0.43500
H1276       H  0.51884119  0.54442283  0.16878409     0.42500
H1277       H  0.99999283  0.64933814  0.03646236     0.42100
H1278       H  0.51786895  0.64760532  0.44534758     0.40100
H1279       H  0.50845549  0.58465557  0.32517625     0.43200
H1280       H  0.99778481  0.92359364  0.32469141     0.38000
H1281       H  0.00429902  0.85520453  0.45015857     0.44100
H1282       H  0.51848344  0.85511027  0.05080493     0.40500
H1283       H  0.51137061  0.64564292  0.38937757     0.45400
H1284       H  0.02267427  0.95783127  0.32910946     0.44200
H1285       H  0.01033194  0.85697182  0.10970456     0.44300
H1286       H  0.50345710  0.58819436  0.17169141     0.44700
O1287       O  0.80249970  0.83843417  0.15913802    -0.74200
O1288       O  0.83685029  0.79867930  0.19848732    -0.53100
C1289       C  0.82957878  0.82836436  0.16934198     0.79500
O1290       O  0.70207775  0.83642080  0.34471821    -0.58800
O1291       O  0.66748577  0.79871778  0.30286185    -0.51800
C1292       C  0.67495547  0.82742942  0.33318378     0.71500
O1293       O  0.80282947  0.83583126  0.34407889    -0.73400
O1294       O  0.83714960  0.79782031  0.30253610    -0.53900
C1295       C  0.82991949  0.82651660  0.33296528     0.77500
O1296       O  0.70147765  0.83729556  0.15766214    -0.58500
O1297       O  0.66700132  0.79914280  0.19981092    -0.51600
C1298       C  0.67437882  0.82798125  0.16933423     0.74100
Zr1299     Zr  0.75201560  0.81476066  0.17842535     2.54700
O1300       O  0.75160107  0.89079390  0.17760598    -0.79100
O1301       O  0.75166095  0.81292431  0.08978817    -0.92500
Zr1302     Zr  0.75238290  0.81316025  0.32370707     2.64700
O1303       O  0.75378933  0.88920429  0.32696890    -0.97500
O1304       O  0.75253735  0.80708451  0.41202572    -0.79500
O1305       O  0.78079090  0.81472277  0.25082876    -0.82900
O1306       O  0.72382697  0.81503655  0.25129438    -2.17600
O1307       O  0.70164233  0.66981991  0.15495178    -0.66300
O1308       O  0.66725531  0.70571348  0.19910627    -0.50800
C1309       C  0.67459380  0.67817126  0.16735455     0.72500
O1310       O  0.80254748  0.66400373  0.34023430    -0.59200
O1311       O  0.83691293  0.70392758  0.30031753    -0.51100
C1312       C  0.82963467  0.67381751  0.32908567     0.74300
O1313       O  0.70190014  0.66649671  0.34378490    -0.70600
O1314       O  0.66759240  0.70575194  0.30333450    -0.49200
C1315       C  0.67488215  0.67645855  0.33302854     0.75700
O1316       O  0.80266593  0.66917500  0.15375481    -0.65900
O1317       O  0.83693766  0.70540164  0.19812604    -0.53100
C1318       C  0.82971370  0.67787101  0.16621817     0.74100
Zr1319     Zr  0.75220405  0.69082593  0.17694623     2.77500
O1320       O  0.75255749  0.61470422  0.17678781    -0.96600
O1321       O  0.75162419  0.69441070  0.08842650    -0.77500
Zr1322     Zr  0.75228887  0.68926848  0.32246759     2.70100
O1323       O  0.75210591  0.61327630  0.32631968    -0.78700
O1324       O  0.75347549  0.69463691  0.41085233    -0.97800
Zr1325     Zr  0.80885578  0.75183104  0.25014719     2.21500
Zr1326     Zr  0.69548613  0.75214265  0.25082847     2.11100
O1327       O  0.72376479  0.68919668  0.24986145    -2.46500
O1328       O  0.78066322  0.68898162  0.24953136    -0.78500
O1329       O  0.72298879  0.75266496  0.17652329    -0.70700
O1330       O  0.78134229  0.75121695  0.32438684    -2.31700
O1331       O  0.78109597  0.75294290  0.17618967    -2.27900
O1332       O  0.72316433  0.75115974  0.32473713    -0.72500
H1333       H  0.71108080  0.83933191  0.25155117     0.79500
H1334       H  0.79444395  0.75085520  0.35223850     0.80600
H1335       H  0.71088962  0.66490356  0.24966544     0.82800
H1336       H  0.79411941  0.75334241  0.14816835     0.80500
H1337       H  0.75457136  0.83618086  0.42372134     0.43500
H1338       H  0.73355832  0.70548853  0.41988665     0.42500
H1339       H  0.74277012  0.60441824  0.29537751     0.42100
H1340       H  0.73454597  0.60633678  0.19537782     0.40100
H1341       H  0.73785298  0.71764969  0.08084225     0.43200
H1342       H  0.77252189  0.80671829  0.08036514     0.38000
H1343       H  0.74043481  0.89860709  0.20732942     0.44100
H1344       H  0.73735129  0.89846480  0.30552448     0.40500
H1345       H  0.74804459  0.60696431  0.14270944     0.45400
H1346       H  0.74868964  0.84237779  0.07989680     0.44200
H1347       H  0.74702533  0.89624674  0.36027318     0.44300
H1348       H  0.75334451  0.66530984  0.42241783     0.44700
C1349       C  0.65660409  0.61525802  0.12129353     0.24700
C1350       C  0.65032796  0.65357676  0.14422108    -0.23400
C1351       C  0.62053045  0.66738086  0.14588234     0.19600
C1352       C  0.59766212  0.64347136  0.12533550     0.24600
C1353       C  0.60388767  0.60486257  0.10285868    -0.23400
C1354       C  0.63377182  0.59134154  0.10080415     0.19500
F1355       F  0.64113992  0.55452014  0.07959958    -0.13300
F1356       F  0.68483020  0.60003119  0.11964854    -0.15700
F1357       F  0.56947352  0.65883957  0.12674644    -0.15700
F1358       F  0.61335437  0.70439421  0.16686054    -0.13300
C1359       C  0.63225449  0.60522075  0.41919499     0.24700
C1360       C  0.60461216  0.60116727  0.39522060    -0.23400
C1361       C  0.60010539  0.62303954  0.35131666     0.19600
C1362       C  0.62269542  0.64806855  0.33169479     0.24600
C1363       C  0.65046782  0.65164851  0.35530228    -0.23400
C1364       C  0.65491509  0.63007841  0.39940295     0.19500
F1365       F  0.68100919  0.63366306  0.42412357    -0.13300
F1366       F  0.63723225  0.58610196  0.46262439    -0.15700
F1367       F  0.61749963  0.66787258  0.28875409    -0.15700
F1368       F  0.57397579  0.61974556  0.32664681    -0.13300
C1369       C  0.60029268  0.88318317  0.15037472     0.24700
C1370       C  0.60441986  0.90191036  0.10439211    -0.23400
C1371       C  0.63160025  0.89559646  0.07967298     0.19600
C1372       C  0.65417562  0.87145916  0.10061484     0.24600
C1373       C  0.65009138  0.85275124  0.14664023    -0.23400
C1374       C  0.62280771  0.85883640  0.17121375     0.19500
F1375       F  0.61811839  0.84225275  0.21616158    -0.13300
F1376       F  0.57466930  0.88919029  0.17585598    -0.15700
F1377       F  0.67980917  0.86560772  0.07513116    -0.15700
F1378       F  0.63610250  0.91171566  0.03443967    -0.13300
C1379       C  0.90377766  0.62268620  0.14766244     0.24700
C1380       C  0.90056359  0.60600545  0.10063229    -0.23400
C1381       C  0.87411801  0.61405981  0.07467360     0.19600
C1382       C  0.85121268  0.63770980  0.09563464     0.24600
C1383       C  0.85428814  0.65399270  0.14297081    -0.23400
C1384       C  0.88100496  0.64648443  0.16850633     0.19500
F1385       F  0.88487386  0.66112340  0.21442012    -0.13300
F1386       F  0.92869710  0.61500732  0.17422589    -0.15700
F1387       F  0.82634748  0.64555677  0.06901553    -0.15700
F1388       F  0.87075124  0.60009717  0.02835990    -0.13300
C1389       C  0.88449434  0.84398873  0.34390728     0.24700
C1390       C  0.85436305  0.85103290  0.35630827    -0.23400
C1391       C  0.84787870  0.88263634  0.39043226     0.19600
C1392       C  0.87067196  0.90670779  0.41088537     0.24600
C1393       C  0.90076608  0.89995235  0.39807988    -0.23400
C1394       C  0.90729634  0.86793754  0.36453520     0.19500
F1395       F  0.93583106  0.85953926  0.35113363    -0.13300
F1396       F  0.89223593  0.81407050  0.31135417    -0.15700
F1397       F  0.86294908  0.93665689  0.44341498    -0.15700
F1398       F  0.81937922  0.89075972  0.40425848    -0.13300
C1399       C  0.87171823  0.58480686  0.38990176     0.24700
C1400       C  0.90091363  0.60113781  0.39269421    -0.23400
C1401       C  0.90651553  0.64124343  0.37341060     0.19600
C1402       C  0.88348007  0.66469386  0.35281032     0.24600
C1403       C  0.85416649  0.64864890  0.35067326    -0.23400
C1404       C  0.84872085  0.60809143  0.36885718     0.19500
F1405       F  0.82127190  0.59027463  0.36523043    -0.13300
F1406       F  0.86538064  0.54582259  0.40665011    -0.15700
F1407       F  0.88996689  0.70355422  0.33576210    -0.15700
F1408       F  0.93420099  0.65850917  0.37552022    -0.13300
C1409       C  0.65647266  0.89297994  0.37346594     0.24700
C1410       C  0.65070913  0.85250698  0.35557848    -0.23400
C1411       C  0.62136639  0.83672287  0.35835441     0.19600
C1412       C  0.59842216  0.86076203  0.37830342     0.24600
C1413       C  0.60416080  0.90131507  0.39592493    -0.23400
C1414       C  0.63354074  0.91699315  0.39345435     0.19500
F1415       F  0.64016209  0.95599646  0.40960779    -0.13300
F1416       F  0.68422194  0.90999463  0.37071101    -0.15700
F1417       F  0.57072919  0.84361972  0.38162573    -0.15700
F1418       F  0.61485578  0.79748715  0.34286801    -0.13300
C1419       C  0.87102010  0.90446513  0.08671869     0.24700
C1420       C  0.90074184  0.90007375  0.10265141    -0.23400
C1421       C  0.90677598  0.87170529  0.14069465     0.19600
C1422       C  0.88381421  0.84846238  0.16214502     0.24600
C1423       C  0.85408177  0.85277980  0.14612780    -0.23800
C1424       C  0.84807325  0.88110613  0.10801802     0.19500
F1425       F  0.81996084  0.88624006  0.09069628    -0.13300
F1426       F  0.86389716  0.93115112  0.05005515    -0.15700
F1427       F  0.89091146  0.82222566  0.19927137    -0.15700
F1428       F  0.93488229  0.86678640  0.15814704    -0.13300
O1429       O  0.95215244  0.91651097  0.90981713    -0.74200
O1430       O  0.91768485  0.95544481  0.94986346    -0.53100
C1431       C  0.92502465  0.92577146  0.92084998     0.79500
O1432       O  0.55282068  0.91665892  0.59296032    -0.58800
O1433       O  0.58732273  0.95590752  0.55237260    -0.51800
C1434       C  0.57992315  0.92662071  0.58221424     0.71500
O1435       O  0.95198192  0.91510464  0.58922003    -0.73400
O1436       O  0.91765285  0.95597795  0.55143217    -0.53900
C1437       C  0.92492801  0.92565676  0.57968581     0.77500
O1438       O  0.55298959  0.91753601  0.90671074    -0.58500
O1439       O  0.58755995  0.95579391  0.94794711    -0.51600
C1440       C  0.58011734  0.92669092  0.91812903     0.74100
Zr1441     Zr  0.00258272  0.94155905  0.92668540     2.54700
O1442       O  0.00290338  0.86597723  0.91747535    -0.79100
O1443       O  0.50171300  0.95054225  0.83850662    -0.92500
Zr1444     Zr  0.00232395  0.93967085  0.57124972     2.64700
O1445       O  0.00277866  0.86355024  0.57376822    -0.97500
O1446       O  0.50103391  0.94382282  0.65985151    -0.79500
O1447       O  0.97416316  0.93991892  0.99954102    -0.82900
O1448       O  0.53103110  0.93944319  0.99912566    -2.17600
O1449       O  0.55333206  0.58563459  0.90552466    -0.66300
O1450       O  0.58751908  0.54827973  0.94847378    -0.50800
C1451       C  0.58029056  0.57678076  0.91772452     0.72500
O1452       O  0.95175537  0.58974205  0.58972290    -0.59200
O1453       O  0.91722794  0.55087139  0.54905467    -0.51100
C1454       C  0.92466004  0.58044273  0.57827463     0.74300
O1455       O  0.55266219  0.58785180  0.59253200    -0.70600
O1456       O  0.58712495  0.54962102  0.55134105    -0.49200
C1457       C  0.57979071  0.57868407  0.58124519     0.75700
O1458       O  0.95209165  0.58583929  0.90518704    -0.65900
O1459       O  0.91742969  0.54851290  0.94760106    -0.53100
C1460       C  0.92491461  0.57676785  0.91659026     0.74100
Zr1461     Zr  0.50274434  0.56338073  0.92584848     2.77500
O1462       O  0.50242539  0.63938352  0.92083667    -0.96600
O1463       O  0.50291879  0.55717420  0.83749523    -0.77500
Zr1464     Zr  0.50208628  0.56561239  0.57111668     2.70100
O1465       O  0.50395400  0.64159393  0.57260498    -0.78700
O1466       O  0.49911275  0.56194376  0.65957745    -0.97800
Zr1467     Zr  0.94561039  0.50253096  0.49964098     2.21500
Zr1468     Zr  0.55946724  0.00233223  0.99985152     2.11100
O1469       O  0.53070016  0.56487115  0.49852182    -2.46500
O1470       O  0.97409608  0.56513996  0.49864284    -0.78500
O1471       O  0.53204878  0.00356356  0.92571352    -0.70700
O1472       O  0.97279256  0.50302637  0.57412557    -2.31700
O1473       O  0.97354676  0.50159869  0.92590170    -2.27900
O1474       O  0.53182173  0.00085217  0.57401344    -0.72500
H1475       H  0.54357813  0.91479020  0.49867275     0.79500
H1476       H  0.95954436  0.50334949  0.60189908     0.80600
H1477       H  0.54346524  0.58955425  0.99861469     0.82800
H1478       H  0.96058136  0.50115997  0.89788897     0.80500
H1479       H  0.99670238  0.91460971  0.67044895     0.43500
H1480       H  0.51977436  0.55619906  0.67032852     0.42500
H1481       H  0.00541668  0.64967173  0.54114564     0.42100
H1482       H  0.51930887  0.64859942  0.94139854     0.40100
H1483       H  0.51493297  0.58124769  0.82587942     0.43200
H1484       H  0.99725651  0.92269997  0.82578512     0.38000
H1485       H  0.00137707  0.85512571  0.95118816     0.44100
H1486       H  0.51602174  0.85443837  0.54757436     0.40500
H1487       H  0.50880254  0.64585812  0.88709710     0.45400
H1488       H  0.02305889  0.95564685  0.82961347     0.44200
H1489       H  0.01199814  0.85633708  0.60540570     0.44300
H1490       H  0.49534566  0.59107578  0.66985021     0.44700
O1491       O  0.80251548  0.83900406  0.65909672    -0.74200
O1492       O  0.83691422  0.79910111  0.69815003    -0.53100
C1493       C  0.82958906  0.82889854  0.66917203     0.79500
O1494       O  0.70213929  0.83625425  0.84515963    -0.58800
O1495       O  0.66753196  0.79898821  0.80276621    -0.51800
C1496       C  0.67504711  0.82740816  0.83346481     0.71500
O1497       O  0.80269247  0.83623376  0.84446525    -0.73400
O1498       O  0.83708632  0.79831822  0.80290440    -0.53900
C1499       C  0.82979523  0.82699350  0.83335989     0.77500
O1500       O  0.70178086  0.83812317  0.65823951    -0.58500
O1501       O  0.66725047  0.79905349  0.69900619    -0.51600
C1502       C  0.67466563  0.82845083  0.66931324     0.74100
Zr1503     Zr  0.75218894  0.81507645  0.67843324     2.54700
O1504       O  0.75181690  0.89108356  0.67671068    -0.79100
O1505       O  0.75177174  0.81207308  0.58989443    -0.92500
Zr1506     Zr  0.75235828  0.81367202  0.82343442     2.64700
O1507       O  0.75269758  0.88982189  0.82356393    -0.97500
O1508       O  0.75197045  0.80973497  0.91192654    -0.79500
O1509       O  0.78097696  0.81516666  0.75079133    -0.82900
O1510       O  0.72382413  0.81530568  0.75109235    -2.17600
O1511       O  0.70195453  0.66996347  0.65444827    -0.66300
O1512       O  0.66749567  0.70572395  0.69859740    -0.50800
C1513       C  0.67489303  0.67818490  0.66683712     0.72500
O1514       O  0.80247175  0.66436991  0.83974898    -0.59200
O1515       O  0.83696118  0.70409045  0.79998652    -0.51100
C1516       C  0.82959826  0.67396829  0.82866373     0.74300
O1517       O  0.70196717  0.66687643  0.84372950    -0.70600
O1518       O  0.66765114  0.70590011  0.80300659    -0.49200
C1519       C  0.67494234  0.67674178  0.83288286     0.75700
O1520       O  0.80271698  0.66905212  0.65428315    -0.65900
O1521       O  0.83707583  0.70565485  0.69804680    -0.53100
C1522       C  0.82978930  0.67786601  0.66644386     0.74100
Zr1523     Zr  0.75234509  0.69132568  0.67681107     2.77500
O1524       O  0.75246096  0.61522469  0.67620495    -0.96600
O1525       O  0.75202363  0.69624670  0.58836072    -0.77500
Zr1526     Zr  0.75228788  0.68988883  0.82232686     2.70100
O1527       O  0.75140106  0.61397304  0.82728153    -0.78700
O1528       O  0.75406820  0.69708635  0.91048071    -0.97800
Zr1529     Zr  0.80903457  0.75226844  0.75009667     2.21500
Zr1530     Zr  0.69549761  0.75239193  0.75055061     2.11100
O1531       O  0.72387597  0.68963092  0.74965360    -2.46500
O1532       O  0.78071878  0.68953498  0.74946679    -0.78500
O1533       O  0.72310304  0.75308166  0.67640924    -0.70700
O1534       O  0.78136845  0.75176599  0.82420618    -2.31700
O1535       O  0.78131550  0.75334406  0.67617595    -2.27900
O1536       O  0.72313334  0.75166114  0.82444912    -0.72500
H1537       H  0.71108564  0.83960788  0.75135559     0.79500
H1538       H  0.79442601  0.75140093  0.85211357     0.80600
H1539       H  0.71106063  0.66527311  0.74946561     0.82800
H1540       H  0.79436007  0.75372116  0.64818262     0.80500
H1541       H  0.75336624  0.83916478  0.92270377     0.43500
H1542       H  0.73363503  0.70559118  0.91988728     0.42500
H1543       H  0.75524874  0.60469155  0.79350333     0.42100
H1544       H  0.73424826  0.60686622  0.69427108     0.40100
H1545       H  0.73815745  0.71945623  0.58112793     0.43200
H1546       H  0.77196454  0.80229558  0.58078493     0.38000
H1547       H  0.75139925  0.89927793  0.71142318     0.44100
H1548       H  0.73516436  0.89804069  0.80393323     0.40500
H1549       H  0.74828147  0.60765911  0.64195874     0.45400
H1550       H  0.75135408  0.84168806  0.57944763     0.44200
H1551       H  0.74739124  0.89765547  0.85732427     0.44300
H1552       H  0.75594783  0.66810545  0.92276012     0.44700
C1553       C  0.65701711  0.61507967  0.62076119     0.24700
C1554       C  0.65068044  0.65334966  0.64381213    -0.23400
C1555       C  0.62083365  0.66685591  0.64584538     0.19600
C1556       C  0.59794958  0.64263872  0.62584453     0.24600
C1557       C  0.60418447  0.60402775  0.60338574    -0.23400
C1558       C  0.63413217  0.59074558  0.60097419     0.19500
F1559       F  0.64152241  0.55385833  0.57993691    -0.13300
F1560       F  0.68538192  0.60047013  0.61798254    -0.15700
F1561       F  0.56971998  0.65781003  0.62761157    -0.15700
F1562       F  0.61363872  0.70404310  0.66637587    -0.13300
C1563       C  0.63233340  0.60583507  0.91948732     0.24700
C1564       C  0.60458365  0.60206833  0.89582515    -0.23400
C1565       C  0.59993520  0.62418207  0.85212183     0.19600
C1566       C  0.62257171  0.64894384  0.83221842     0.24600
C1567       C  0.65051112  0.65209643  0.85539179    -0.23400
C1568       C  0.65502755  0.63048233  0.89945757     0.19500
F1569       F  0.68120701  0.63386503  0.92396588    -0.13300
F1570       F  0.63737407  0.58667356  0.96287251    -0.15700
F1571       F  0.61721107  0.66898058  0.78947985    -0.15700
F1572       F  0.57360301  0.62144508  0.82793720    -0.13300
C1573       C  0.59935359  0.87978963  0.64864469     0.24700
C1574       C  0.60426523  0.90205958  0.60502191    -0.23400
C1575       C  0.63256968  0.89978931  0.58273344     0.19600
C1576       C  0.65536114  0.87607294  0.60359312     0.24600
C1577       C  0.65037555  0.85344480  0.64694978    -0.23400
C1578       C  0.62207672  0.85576614  0.66929831     0.19500
F1579       F  0.61647251  0.83573576  0.71202793    -0.13300
F1580       F  0.57268923  0.88180057  0.67208708    -0.15700
F1581       F  0.68219714  0.87479009  0.58060730    -0.15700
F1582       F  0.63813339  0.91961205  0.53985883    -0.13300
C1583       C  0.90408466  0.62345020  0.64676691     0.24700
C1584       C  0.90041368  0.60569332  0.60034608    -0.23400
C1585       C  0.87351345  0.61273503  0.57518200     0.19600
C1586       C  0.85071143  0.63651829  0.59628281     0.24600
C1587       C  0.85428207  0.65388361  0.64301925    -0.23400
C1588       C  0.88140343  0.64734146  0.66774386     0.19500
F1589       F  0.88579432  0.66303078  0.71304728    -0.13300
F1590       F  0.92937053  0.61668446  0.67272946    -0.15700
F1591       F  0.82541977  0.64337322  0.57035469    -0.15700
F1592       F  0.86951601  0.59753601  0.52953658    -0.13300
C1593       C  0.88440219  0.84302088  0.84647605     0.24700
C1594       C  0.85418545  0.85161392  0.85672158    -0.23400
C1595       C  0.84759655  0.88491006  0.88854611     0.19600
C1596       C  0.87041334  0.90882486  0.90922044     0.24600
C1597       C  0.90063111  0.90029999  0.89881214    -0.23400
C1598       C  0.90721346  0.86683358  0.86728514     0.19500
F1599       F  0.93582937  0.85678346  0.85614368    -0.13300
F1600       F  0.89223444  0.81166292  0.81588073    -0.15700
F1601       F  0.86258009  0.94053779  0.93933476    -0.15700
F1602       F  0.81897499  0.89507201  0.89955372    -0.13300
C1603       C  0.87073693  0.58690409  0.89499576     0.24700
C1604       C  0.90060248  0.60088167  0.89280947    -0.23400
C1605       C  0.90688527  0.63859032  0.86816163     0.19600
C1606       C  0.88398790  0.66209991  0.84735538     0.24600
C1607       C  0.85403937  0.64855980  0.85029756    -0.23400
C1608       C  0.84784883  0.61022014  0.87374537     0.19500
F1609       F  0.81967289  0.59451729  0.87541018    -0.13300
F1610       F  0.86348221  0.55019082  0.91700547    -0.15700
F1611       F  0.89140502  0.69845301  0.82468739    -0.15700
F1612       F  0.93523248  0.65343636  0.86463613    -0.13300
C1613       C  0.65661943  0.89322912  0.87304049     0.24700
C1614       C  0.65092463  0.85243118  0.85611945    -0.23400
C1615       C  0.62178621  0.83623466  0.86014394     0.19600
C1616       C  0.59884015  0.86034585  0.87996835     0.24600
C1617       C  0.60441555  0.90136792  0.89626638    -0.23400
C1618       C  0.63368709  0.91734450  0.89286462     0.19500
F1619       F  0.64019520  0.95669075  0.90798672    -0.13300
F1620       F  0.68429980  0.91039230  0.86957034    -0.15700
F1621       F  0.57134676  0.84281236  0.88459749    -0.15700
F1622       F  0.61556239  0.79648222  0.84619412    -0.13300
C1623       C  0.87081443  0.90524093  0.58667704     0.24700
C1624       C  0.90051261  0.90107727  0.60276508    -0.23400
C1625       C  0.90656614  0.87300478  0.64110797     0.19600
C1626       C  0.88365580  0.84968992  0.66254524     0.24600
C1627       C  0.85399974  0.85349197  0.64606609    -0.23800
C1628       C  0.84794529  0.88164626  0.60779692     0.19500
F1629       F  0.81986287  0.88644298  0.59021018    -0.13300
F1630       F  0.86363193  0.93197050  0.55009664    -0.15700
F1631       F  0.89069398  0.82399028  0.70021097    -0.15700
F1632       F  0.93462981  0.86844804  0.65887324    -0.13300
loop_ 
_geom_bond_atom_site_label_1 
_geom_bond_atom_site_label_2 
_geom_bond_distance 
_geom_bond_site_symmetry_2 
_ccdc_geom_bond_type 
O1          Zr13   2.442       .  S
O1            C3   1.289       .  A
O2         Zr651   2.413       .  S
O2            C3   1.285       .  A
C3          C169   1.486       .  S
O4         Zr832   2.446       .  S
O4            C6   1.289       .  A
O5         Zr244   2.415       .  S
O5            C6   1.285       .  A
C6          C146   1.488       .  S
O7          Zr16   2.433       .  S
O7            C9   1.287       .  A
O8         Zr447   2.408   1_554  S
O8            C9   1.284       .  A
C9          C196   1.485       .  S
O10        Zr829   2.439       .  S
O10          C12   1.288       .  A
O11         Zr40   2.418       .  S
O11          C12   1.286       .  A
C12         C189   1.485       .  S
Zr13        O826   2.443       .  S
Zr13         O14   2.435       .  S
Zr13        O831   2.435       .  S
Zr13         O19   2.371       .  S
Zr13        O836   2.367       .  S
Zr13        O859   2.374       .  S
Zr13        O453   2.371       .  S
O14          H57   0.990       .  S
O15        Zr829   2.435       .  S
O15         H872   0.991       .  S
O15         H876   0.990       .  S
Zr16        O820   2.450       .  S
Zr16         O17   2.438       .  S
Zr16        O834   2.434       .  S
Zr16       O1040   2.367       .  S
Zr16        O223   2.374       .  S
Zr16        O452   2.373       .  S
Zr16        O862   2.371       .  S
O17          H61   0.990       .  S
O17         H874   0.990       .  S
O18        Zr832   2.435       .  S
O18         H867   0.990   1_455  S
O19        Zr220   2.374       .  S
O19        Zr651   2.377       .  S
O20         Zr40   2.381       .  S
O20        Zr829   2.368       .  S
O20       Zr1036   2.367       .  S
O20         H251   0.967       .  S
O21         Zr33   2.446       .  S
O21          C23   1.289       .  A
O22        Zr448   2.409       .  S
O22          C23   1.284       .  A
C23         C136   1.482       .  S
O24        Zr852   2.444       .  S
O24          C26   1.288       .  A
O25         Zr39   2.422       .  S
O25          C26   1.286       .  A
C26         C156   1.490       .  S
O27         Zr36   2.440       .  S
O27          C29   1.288       .  A
O28        Zr652   2.418   1_554  S
O28          C29   1.286       .  A
C29         C129   1.488       .  S
O30        Zr849   2.446       .  S
O30          C32   1.289       .  A
O31        Zr243   2.420       .  S
O31          C32   1.286       .  A
C32         C176   1.495       .  S
Zr33        O846   2.442   1_455  S
Zr33         O34   2.437       .  S
Zr33         O35   2.436       .  S
Zr33        O245   2.370       .  S
Zr33       O1062   2.374   1_455  S
Zr33        O861   2.369   1_455  S
Zr33        O451   2.374       .  S
O34          H54   0.990       .  S
O34          H59   0.991       .  S
O35          H55   0.990       .  S
Zr36        O840   2.445   1_455  S
Zr36         O37   2.433       .  S
Zr36         O38   2.435       .  S
Zr36         O41   2.371       .  S
Zr36        O858   2.371   1_455  S
Zr36        O454   2.374       .  S
Zr36        O860   2.369   1_455  S
O37         H869   0.990   1_455  S
O38          H52   0.990       .  S
O38          H62   0.990       .  S
Zr39        O614   2.417   1_544  S
Zr39        O416   2.410   1_545  S
Zr39        O235   2.420   1_554  S
Zr39         O42   2.371       .  S
Zr39         O44   2.383       .  S
Zr39        O631   2.378   1_544  S
Zr39        O249   2.383   1_554  S
Zr40        O209   2.415       .  S
Zr40        O430   2.410       .  S
Zr40        O640   2.425       .  S
Zr40         O43   2.384       .  S
Zr40        O653   2.382       .  S
Zr40        O250   2.380       .  S
O41        Zr237   2.369   1_554  S
O41        Zr652   2.382   1_554  S
O41         H253   0.967       .  S
O42       Zr1053   2.373   1_554  S
O42        Zr852   2.371       .  S
O43        Zr829   2.373       .  S
O43        Zr441   2.375       .  S
O44        Zr424   2.373   1_545  S
O44        Zr852   2.368       .  S
O44          H48   0.966       .  S
O45        Zr421   2.374   1_545  S
O45        Zr849   2.370       .  S
O45        Zr243   2.383       .  S
O45          H50   0.966       .  S
O46        Zr832   2.373       .  S
O46        Zr444   2.377       .  S
O46        Zr244   2.381       .  S
H47         O224   0.967       .  S
H49         O245   0.967       .  S
H51         O834   0.990       .  S
H53         O853   0.990       .  S
H56         O831   0.991       .  S
H58         O833   0.990       .  S
H60         O831   0.990       .  S
O63         Zr75   2.436       .  S
O63          C65   1.287       .  A
O64        Zr101   2.406       .  S
O64          C65   1.283       .  A
C65         C199   1.486       .  S
O66         Zr78   2.443       .  S
O66          C68   1.288       .  A
O67        Zr102   2.424       .  S
O67          C68   1.287       .  A
C68         C186   1.489       .  S
O69         Zr78   2.440       .  S
O69          C71   1.288       .  A
O70        Zr101   2.416       .  S
O70          C71   1.285       .  A
C71         C166   1.485       .  S
O72         Zr75   2.445       .  S
O72          C74   1.289       .  A
O73        Zr102   2.420       .  S
O73          C74   1.286       .  A
C74         C149   1.489       .  S
Zr75         O76   2.433       .  S
Zr75         O77   2.436       .  S
Zr75         O81   2.373       .  S
Zr75         O82   2.370       .  S
Zr75        O105   2.367       .  S
Zr75        O107   2.373       .  S
O76         H119   0.990       .  S
O77         H118   0.990       .  S
O77         H122   0.990       .  S
Zr78         O79   2.436       .  S
Zr78         O80   2.434       .  S
Zr78         O82   2.369       .  S
Zr78         O81   2.370       .  S
Zr78        O106   2.371       .  S
Zr78        O108   2.372       .  S
O79         H120   0.990       .  S
O79         H123   0.990       .  S
O80         H113   0.990       .  S
O81        Zr101   2.377       .  S
O82        Zr102   2.379       .  S
O82         H109   0.967       .  S
O83         Zr95   2.441       .  S
O83          C85   1.288       .  A
O84        Zr102   2.415       .  S
O84          C85   1.285       .  A
C85         C126   1.487       .  S
O86         Zr98   2.439       .  S
O86          C88   1.287       .  A
O87        Zr101   2.418       .  S
O87          C88   1.285       .  A
C88         C179   1.493       .  S
O89         Zr98   2.438       .  S
O89          C91   1.288       .  A
O90        Zr102   2.411       .  S
O90          C91   1.285       .  A
C91         C139   1.481       .  S
O92         Zr95   2.446       .  S
O92          C94   1.289       .  A
O93        Zr101   2.417       .  S
O93          C94   1.285       .  A
C94         C159   1.489       .  S
Zr95         O96   2.437       .  S
Zr95         O97   2.434       .  S
Zr95        O103   2.369       .  S
Zr95        O104   2.370       .  S
Zr95        O107   2.367       .  S
Zr95        O105   2.376       .  S
O96         H116   0.990       .  S
O96         H121   0.990       .  S
O97         H117   0.990       .  S
Zr98         O99   2.433       .  S
Zr98        O100   2.433       .  S
Zr98        O104   2.369       .  S
Zr98        O103   2.369       .  S
Zr98        O108   2.375       .  S
Zr98        O106   2.369       .  S
O99         H115   0.990       .  S
O100        H114   0.990       .  S
O100        H124   0.990       .  S
Zr101       O104   2.373       .  S
Zr101       O106   2.380       .  S
Zr101       O107   2.383       .  S
Zr102       O103   2.385       .  S
Zr102       O105   2.381       .  S
Zr102       O108   2.380       .  S
O103        H111   0.967       .  S
O106        H110   0.966       .  S
O107        H112   0.965       .  S
C125        C126   1.411       .  A
C125        C130   1.397       .  A
C125        F132   1.358       .  S
C126        C127   1.410       .  A
C127        C128   1.397       .  A
C127        F134   1.358       .  S
C128        C129   1.411       .  A
C128        F133   1.358       .  S
C129        C130   1.410       .  A
C130        F131   1.358       .  S
C135        C136   1.411       .  A
C135        C140   1.397       .  A
C135        F142   1.358       .  S
C136        C137   1.407       .  A
C137        C138   1.395       .  A
C137        F144   1.358       .  S
C138        C139   1.410       .  A
C138        F143   1.358       .  S
C139        C140   1.408       .  A
C140        F141   1.358       .  S
C145        C146   1.410       .  A
C145        C150   1.398       .  A
C145        F152   1.358       .  S
C146        C147   1.410       .  A
C147        C148   1.398       .  A
C147        F154   1.358       .  S
C148        C149   1.410       .  A
C148        F153   1.358       .  S
C149        C150   1.410       .  A
C150        F151   1.358       .  S
C155        C156   1.411       .  A
C155        C160   1.400       .  A
C155        F162   1.358       .  S
C156        C157   1.410       .  A
C157        C158   1.397       .  A
C157        F164   1.358       .  S
C158        C159   1.409       .  A
C158        F163   1.358       .  S
C159        C160   1.411       .  A
C160        F161   1.358       .  S
C165        C166   1.409       .  A
C165        C170   1.397       .  A
C165        F172   1.358       .  S
C166        C167   1.409       .  A
C167        C168   1.398       .  A
C167        F174   1.358       .  S
C168        C169   1.410       .  A
C168        F173   1.358       .  S
C169        C170   1.409       .  A
C170        F171   1.358       .  S
C175        C176   1.412       .  A
C175        C180   1.398       .  A
C175        F182   1.358       .  S
C176        C177   1.412       .  A
C177        C178   1.399       .  A
C177        F184   1.358       .  S
C178        C179   1.411       .  A
C178        F183   1.358       .  S
C179        C180   1.411       .  A
C180        F181   1.358       .  S
C185        C186   1.411       .  A
C185        C190   1.398       .  A
C185        F192   1.358       .  S
C186        C187   1.410       .  A
C187        C188   1.398       .  A
C187        F194   1.358       .  S
C188        C189   1.410       .  A
C188        F193   1.358       .  S
C189        C190   1.408       .  A
C190        F191   1.358       .  S
C195        C196   1.411       .  A
C195        C200   1.395       .  A
C195        F202   1.358       .  S
C196        C197   1.410       .  A
C197        C198   1.394       .  A
C197        F204   1.358       .  S
C198        C199   1.411       .  A
C198        F203   1.358       .  S
C199        C200   1.410       .  A
C200        F201   1.358       .  S
O205       Zr217   2.444       .  S
O205        C207   1.289       .  A
O206       Zr447   2.415       .  S
O206        C207   1.285       .  A
C207        C373   1.487       .  S
O208      Zr1036   2.448       .  S
O208        C210   1.289       .  A
O209        C210   1.285       .  A
C210        C350   1.485       .  S
O211       Zr220   2.434       .  S
O211        C213   1.287       .  A
O212       Zr651   2.411       .  S
O212        C213   1.284       .  A
C213        C400   1.486       .  S
O214      Zr1033   2.441       .  S
O214        C216   1.288       .  A
O215       Zr244   2.420   1_556  S
O215        C216   1.286       .  A
C216        C393   1.487       .  S
Zr217      O1030   2.443       .  S
Zr217       O218   2.435       .  S
Zr217      O1035   2.434       .  S
Zr217       O223   2.370   1_556  S
Zr217      O1040   2.369   1_556  S
Zr217      O1063   2.374       .  S
Zr217       O657   2.371       .  S
O218        H261   0.990       .  S
O219      Zr1033   2.435       .  S
O219       H1076   0.991       .  S
O219       H1080   0.990       .  S
Zr220      O1024   2.450       .  S
Zr220       O221   2.438       .  S
Zr220      O1038   2.435       .  S
Zr220       O836   2.367       .  S
Zr220       O656   2.373       .  S
Zr220      O1066   2.371       .  S
O221       H1078   0.990       .  S
O221        H265   0.990       .  S
O222      Zr1036   2.435       .  S
O222       H1071   0.990   1_455  S
O223       Zr447   2.380   1_554  S
O224      Zr1033   2.365   1_554  S
O224       Zr832   2.367       .  S
O224       Zr244   2.378       .  S
O225       Zr237   2.443       .  S
O225        C227   1.288       .  A
O226       Zr652   2.412       .  S
O226        C227   1.284       .  A
C227        C340   1.482       .  S
O228      Zr1056   2.445       .  S
O228        C230   1.289       .  A
O229       Zr243   2.422       .  S
O229        C230   1.286       .  A
C230        C360   1.490       .  S
O231       Zr240   2.441       .  S
O231        C233   1.288       .  A
O232       Zr448   2.417       .  S
O232        C233   1.285       .  A
C233        C333   1.488       .  S
O234      Zr1053   2.445       .  S
O234        C236   1.289       .  A
O235        C236   1.286       .  A
C236        C380   1.495       .  S
Zr237      O1050   2.441   1_455  S
Zr237       O238   2.437       .  S
Zr237       O239   2.437       .  S
Zr237       O858   2.373   1_456  S
Zr237      O1065   2.370   1_455  S
Zr237       O655   2.376       .  S
O238        H258   0.990       .  S
O238        H263   0.991       .  S
O239        H259   0.990       .  S
Zr240      O1044   2.443   1_455  S
Zr240       O241   2.433       .  S
Zr240       O242   2.435       .  S
Zr240      O1062   2.372   1_455  S
Zr240       O245   2.370       .  S
Zr240       O658   2.373       .  S
Zr240      O1064   2.368   1_455  S
O241       H1073   0.990       .  S
O242        H256   0.990       .  S
O242        H266   0.990       .  S
Zr243       O410   2.414   1_545  S
Zr243       O620   2.410   1_545  S
Zr243       O427   2.377   1_545  S
Zr243       O246   2.370       .  S
Zr243       O248   2.382       .  S
Zr244       O634   2.410   1_554  S
Zr244       O436   2.423       .  S
Zr244       O449   2.381   1_554  S
Zr244       O247   2.383   1_554  S
O245       Zr448   2.383       .  S
O246       Zr849   2.373       .  S
O246      Zr1056   2.372       .  S
O247      Zr1033   2.375       .  S
O247       Zr645   2.377       .  S
O248       Zr628   2.373   1_545  S
O248      Zr1056   2.369       .  S
O248        H252   0.966       .  S
O249       Zr625   2.375   1_545  S
O249      Zr1053   2.369       .  S
O249        H254   0.966       .  S
O250      Zr1036   2.371       .  S
O250       Zr648   2.376       .  S
H255       O1038   0.990       .  S
H257       O1057   0.990       .  S
H260       O1035   0.991       .  S
H262       O1037   0.990       .  S
H264       O1035   0.990       .  S
O267       Zr279   2.434       .  S
O267        C269   1.287       .  A
O268       Zr305   2.403       .  S
O268        C269   1.283       .  A
C269        C403   1.483       .  S
O270       Zr282   2.443       .  S
O270        C272   1.288       .  A
O271       Zr306   2.426       .  S
O271        C272   1.287       .  A
C272        C390   1.489       .  S
O273       Zr282   2.441       .  S
O273        C275   1.288       .  A
O274       Zr305   2.417       .  S
O274        C275   1.286       .  A
C275        C370   1.485       .  S
O276       Zr279   2.443       .  S
O276        C278   1.288       .  A
O277       Zr306   2.420       .  S
O277        C278   1.286       .  A
C278        C353   1.485       .  S
Zr279       O280   2.434       .  S
Zr279       O281   2.435       .  S
Zr279       O285   2.372       .  S
Zr279       O286   2.369       .  S
Zr279       O309   2.366       .  S
Zr279       O311   2.372       .  S
O280        H323   0.990       .  S
O281        H322   0.990       .  S
O281        H326   0.990       .  S
Zr282       O283   2.436       .  S
Zr282       O284   2.434       .  S
Zr282       O286   2.369       .  S
Zr282       O285   2.369       .  S
Zr282       O310   2.371       .  S
Zr282       O312   2.372       .  S
O283        H324   0.990       .  S
O283        H327   0.990       .  S
O284        H317   0.990       .  S
O285       Zr305   2.377       .  S
O286       Zr306   2.378       .  S
O286        H313   0.967       .  S
O287       Zr299   2.444       .  S
O287        C289   1.289       .  A
O288       Zr306   2.416       .  S
O288        C289   1.285       .  A
C289        C330   1.489       .  S
O290       Zr302   2.442       .  S
O290        C292   1.288       .  A
O291       Zr305   2.416       .  S
O291        C292   1.285       .  A
C292        C383   1.493       .  S
O293       Zr302   2.441       .  S
O293        C295   1.288       .  A
O294       Zr306   2.408       .  S
O294        C295   1.284       .  A
C295        C343   1.482       .  S
O296       Zr299   2.449       .  S
O296        C298   1.290       .  A
O297       Zr305   2.418       .  S
O297        C298   1.285       .  A
C298        C363   1.489       .  S
Zr299       O300   2.436       .  S
Zr299       O301   2.434       .  S
Zr299       O307   2.369       .  S
Zr299       O308   2.369       .  S
Zr299       O311   2.368       .  S
Zr299       O309   2.376       .  S
O300        H320   0.990       .  S
O300        H325   0.990       .  S
O301        H321   0.990       .  S
Zr302       O303   2.433       .  S
Zr302       O304   2.433       .  S
Zr302       O308   2.370       .  S
Zr302       O307   2.370       .  S
Zr302       O312   2.374       .  S
Zr302       O310   2.369       .  S
O303        H319   0.990       .  S
O304        H318   0.990       .  S
O304        H328   0.990       .  S
Zr305       O308   2.373       .  S
Zr305       O310   2.379       .  S
Zr305       O311   2.382       .  S
Zr306       O307   2.386       .  S
Zr306       O309   2.379       .  S
Zr306       O312   2.381       .  S
O307        H315   0.967       .  S
O310        H314   0.966       .  S
O311        H316   0.965       .  S
C329        C330   1.411       .  A
C329        C334   1.397       .  A
C329        F336   1.358       .  S
C330        C331   1.410       .  A
C331        C332   1.397       .  A
C331        F338   1.358       .  S
C332        C333   1.411       .  A
C332        F337   1.358       .  S
C333        C334   1.410       .  A
C334        F335   1.358       .  S
C339        C340   1.410       .  A
C339        C344   1.396       .  A
C339        F346   1.358       .  S
C340        C341   1.408       .  A
C341        C342   1.396       .  A
C341        F348   1.358       .  S
C342        C343   1.410       .  A
C342        F347   1.358       .  S
C343        C344   1.408       .  A
C344        F345   1.358       .  S
C349        C350   1.410       .  A
C349        C354   1.398       .  A
C349        F356   1.358       .  S
C350        C351   1.409       .  A
C351        C352   1.397       .  A
C351        F358   1.358       .  S
C352        C353   1.410       .  A
C352        F357   1.358       .  S
C353        C354   1.409       .  A
C354        F355   1.358       .  S
C359        C360   1.410       .  A
C359        C364   1.401       .  A
C359        F366   1.358       .  S
C360        C361   1.410       .  A
C361        C362   1.398       .  A
C361        F368   1.358       .  S
C362        C363   1.409       .  A
C362        F367   1.358       .  S
C363        C364   1.411       .  A
C364        F365   1.358       .  S
C369        C370   1.409       .  A
C369        C374   1.397       .  A
C369        F376   1.358       .  S
C370        C371   1.409       .  A
C371        C372   1.398       .  A
C371        F378   1.358       .  S
C372        C373   1.410       .  A
C372        F377   1.357       .  S
C373        C374   1.409       .  A
C374        F375   1.358       .  S
C379        C380   1.412       .  A
C379        C384   1.398       .  A
C379        F386   1.358       .  S
C380        C381   1.412       .  A
C381        C382   1.399       .  A
C381        F388   1.358       .  S
C382        C383   1.411       .  A
C382        F387   1.358       .  S
C383        C384   1.411       .  A
C384        F385   1.358       .  S
C389        C390   1.411       .  A
C389        C394   1.398       .  A
C389        F396   1.358       .  S
C390        C391   1.409       .  A
C391        C392   1.399       .  A
C391        F398   1.358       .  S
C392        C393   1.410       .  A
C392        F397   1.358       .  S
C393        C394   1.408       .  A
C394        F395   1.358       .  S
C399        C400   1.411       .  A
C399        C404   1.395       .  A
C399        F406   1.358       .  S
C400        C401   1.410       .  A
C401        C402   1.394       .  A
C401        F408   1.358       .  S
C402        C403   1.410       .  A
C402        F407   1.359       .  S
C403        C404   1.409       .  A
C404        F405   1.358       .  S
O409       Zr421   2.440       .  S
O409        C411   1.288       .  A
O410        C411   1.285       .  A
C411        C577   1.491       .  S
O412      Zr1240   2.448       .  S
O412        C414   1.289       .  A
O413       Zr652   2.419   1_564  S
O413        C414   1.286       .  A
C414        C554   1.484       .  S
O415       Zr424   2.438       .  S
O415        C417   1.288       .  A
O416        C417   1.284       .  A
C417        C604   1.484       .  S
O418      Zr1237   2.442       .  S
O418        C420   1.288       .  A
O419       Zr448   2.421   1_565  S
O419        C420   1.286       .  A
C420        C597   1.484       .  S
Zr421      O1234   2.446       .  S
Zr421       O422   2.434       .  S
Zr421      O1239   2.435       .  S
Zr421       O427   2.369       .  S
Zr421      O1244   2.369       .  S
Zr421      O1267   2.372   1_565  S
O422        H465   0.990       .  S
O423      Zr1237   2.435       .  S
O423       H1280   0.991   1_455  S
O423       H1284   0.990       .  S
Zr424      O1228   2.446       .  S
Zr424       O425   2.437       .  S
Zr424      O1242   2.434       .  S
Zr424      O1448   2.366   1_554  S
Zr424       O631   2.369   1_554  S
Zr424      O1270   2.373   1_565  S
O425       H1282   0.990       .  S
O425        H469   0.990       .  S
O426      Zr1240   2.435       .  S
O426       H1275   0.990       .  S
O427       Zr628   2.369       .  S
O428      Zr1237   2.370       .  S
O428      Zr1444   2.366       .  S
O428       Zr448   2.379   1_565  S
O428        H659   0.967       .  S
O429       Zr441   2.442       .  S
O429        C431   1.288       .  A
O430        C431   1.284       .  A
C431        C544   1.482       .  S
O432      Zr1260   2.445       .  S
O432        C434   1.289       .  A
O433       Zr447   2.424   1_554  S
O433        C434   1.286       .  A
C434        C564   1.485       .  S
O435       Zr444   2.440       .  S
O435        C437   1.288       .  A
O436        C437   1.287       .  A
C437        C537   1.489       .  S
O438      Zr1257   2.444       .  S
O438        C440   1.289       .  A
O439       Zr651   2.414       .  S
O439        C440   1.285       .  A
C440        C584   1.488       .  S
Zr441      O1254   2.446   1_455  S
Zr441       O442   2.435       .  S
Zr441       O443   2.436       .  S
Zr441       O653   2.371       .  S
Zr441      O1470   2.371   1_455  S
Zr441      O1269   2.368   1_455  S
O442        H462   0.990       .  S
O442        H467   0.991       .  S
O443        H463   0.990       .  S
Zr444      O1248   2.442   1_455  S
Zr444       O445   2.434       .  S
Zr444       O446   2.436   1_455  S
Zr444      O1266   2.371   1_454  S
Zr444       O449   2.368   1_554  S
Zr444      O1268   2.371   1_455  S
O445       H1277   0.990   1_455  S
O446        H460   0.990   1_655  S
O446        H470   0.990   1_655  S
Zr447       O643   2.416       .  S
Zr447       O450   2.373       .  S
Zr447       O452   2.383   1_556  S
Zr447       O657   2.381       .  S
Zr448       O617   2.418   1_545  S
Zr448       O451   2.381       .  S
Zr448       O658   2.379       .  S
O449       Zr645   2.369       .  S
O449        H661   0.967       .  S
O450      Zr1461   2.371       .  S
O450      Zr1260   2.373   1_556  S
O451      Zr1237   2.371   1_545  S
O452      Zr1260   2.368       .  S
O452        H456   0.966       .  S
O453      Zr1257   2.368       .  S
O453       Zr651   2.381       .  S
O453        H458   0.965       .  S
O454      Zr1240   2.373   1_545  S
O454       Zr652   2.380   1_554  S
H455        O632   0.967       .  S
H457        O653   0.967       .  S
H459       O1242   0.990       .  S
H461       O1261   0.990       .  S
H464       O1239   0.991       .  S
H466       O1241   0.990       .  S
H468       O1239   0.990       .  S
O471       Zr483   2.440       .  S
O471        C473   1.288       .  A
O472       Zr509   2.411       .  S
O472        C473   1.284       .  A
C473        C607   1.486       .  S
O474       Zr486   2.447       .  S
O474        C476   1.289       .  A
O475       Zr510   2.420       .  S
O475        C476   1.286       .  A
C476        C594   1.486       .  S
O477       Zr486   2.438       .  S
O477        C479   1.287       .  A
O478       Zr509   2.421       .  S
O478        C479   1.286       .  A
C479        C574   1.492       .  S
O480       Zr483   2.446       .  S
O480        C482   1.289       .  A
O481       Zr510   2.423       .  S
O481        C482   1.286       .  A
C482        C557   1.485       .  S
Zr483       O484   2.433       .  S
Zr483       O485   2.436       .  S
Zr483       O489   2.372       .  S
Zr483       O490   2.366       .  S
Zr483       O513   2.372       .  S
Zr483       O515   2.374       .  S
O484        H527   0.990       .  S
O485        H526   0.991       .  S
O485        H530   0.990       .  S
Zr486       O487   2.438       .  S
Zr486       O488   2.434       .  S
Zr486       O490   2.367       .  S
Zr486       O489   2.373       .  S
Zr486       O514   2.375       .  S
Zr486       O516   2.373       .  S
O487        H528   0.990       .  S
O487        H531   0.990       .  S
O488        H521   0.990       .  S
O489       Zr509   2.378       .  S
O490       Zr510   2.379       .  S
O490        H517   0.967       .  S
O491       Zr503   2.442       .  S
O491        C493   1.288       .  A
O492       Zr510   2.416       .  S
O492        C493   1.286       .  A
C493        C534   1.487       .  S
O494       Zr506   2.444       .  S
O494        C496   1.289       .  A
O495       Zr509   2.414       .  S
O495        C496   1.285       .  A
C496        C587   1.489       .  S
O497       Zr506   2.440       .  S
O497        C499   1.288       .  A
O498       Zr510   2.414       .  S
O498        C499   1.285       .  A
C499        C547   1.482       .  S
O500       Zr503   2.451       .  S
O500        C502   1.290       .  A
O501       Zr509   2.424       .  S
O501        C502   1.287       .  A
C502        C567   1.487       .  S
Zr503       O504   2.436       .  S
Zr503       O505   2.436       .  S
Zr503       O511   2.372       .  S
Zr503       O512   2.370       .  S
Zr503       O515   2.370       .  S
Zr503       O513   2.377       .  S
O504        H524   0.990       .  S
O504        H529   0.990       .  S
O505        H525   0.990       .  S
Zr506       O507   2.434       .  S
Zr506       O508   2.434       .  S
Zr506       O512   2.370       .  S
Zr506       O511   2.370       .  S
Zr506       O516   2.376       .  S
Zr506       O514   2.369       .  S
O507        H523   0.990       .  S
O508        H522   0.990       .  S
O508        H532   0.990       .  S
Zr509       O512   2.372       .  S
Zr509       O514   2.383       .  S
Zr509       O515   2.384       .  S
Zr510       O511   2.384       .  S
Zr510       O513   2.382       .  S
Zr510       O516   2.382       .  S
O511        H519   0.967       .  S
O514        H518   0.966       .  S
O515        H520   0.965       .  S
C533        C534   1.410       .  A
C533        C538   1.397       .  A
C533        F540   1.358       .  S
C534        C535   1.409       .  A
C535        C536   1.398       .  A
C535        F542   1.358       .  S
C536        C537   1.412       .  A
C536        F541   1.358       .  S
C537        C538   1.410       .  A
C538        F539   1.358       .  S
C543        C544   1.410       .  A
C543        C548   1.397       .  A
C543        F550   1.358       .  S
C544        C545   1.408       .  A
C545        C546   1.396       .  A
C545        F552   1.358       .  S
C546        C547   1.409       .  A
C546        F551   1.358       .  S
C547        C548   1.408       .  A
C548        F549   1.358       .  S
C553        C554   1.408       .  A
C553        C558   1.400       .  A
C553        F560   1.358       .  S
C554        C555   1.409       .  A
C555        C556   1.399       .  A
C555        F562   1.358       .  S
C556        C557   1.408       .  A
C556        F561   1.358       .  S
C557        C558   1.409       .  A
C558        F559   1.358       .  S
C563        C564   1.407       .  A
C563        C568   1.399       .  A
C563        F570   1.358       .  S
C564        C565   1.409       .  A
C565        C566   1.402       .  A
C565        F572   1.358       .  S
C566        C567   1.410       .  A
C566        F571   1.358       .  S
C567        C568   1.409       .  A
C568        F569   1.358       .  S
C573        C574   1.411       .  A
C573        C578   1.396       .  A
C573        F580   1.358       .  S
C574        C575   1.412       .  A
C575        C576   1.398       .  A
C575        F582   1.358       .  S
C576        C577   1.411       .  A
C576        F581   1.358       .  S
C577        C578   1.411       .  A
C578        F579   1.358       .  S
C583        C584   1.410       .  A
C583        C588   1.398       .  A
C583        F590   1.358       .  S
C584        C585   1.410       .  A
C585        C586   1.398       .  A
C585        F592   1.358       .  S
C586        C587   1.411       .  A
C586        F591   1.358       .  S
C587        C588   1.410       .  A
C588        F589   1.358       .  S
C593        C594   1.410       .  A
C593        C598   1.398       .  A
C593        F600   1.358       .  S
C594        C595   1.409       .  A
C595        C596   1.399       .  A
C595        F602   1.358       .  S
C596        C597   1.410       .  A
C596        F601   1.358       .  S
C597        C598   1.408       .  A
C598        F599   1.358       .  S
C603        C604   1.410       .  A
C603        C608   1.396       .  A
C603        F610   1.358       .  S
C604        C605   1.409       .  A
C605        C606   1.396       .  A
C605        F612   1.358       .  S
C606        C607   1.411       .  A
C606        F611   1.358       .  S
C607        C608   1.409       .  A
C608        F609   1.358       .  S
O613       Zr625   2.438       .  S
O613        C615   1.288       .  A
O614        C615   1.286       .  A
C615        C781   1.492       .  S
O616      Zr1444   2.442       .  S
O616        C618   1.288       .  A
O617        C618   1.286       .  A
C618        C758   1.493       .  S
O619       Zr628   2.434       .  S
O619        C621   1.287       .  A
O620        C621   1.284       .  A
C621        C808   1.484       .  S
O622      Zr1441   2.447       .  S
O622        C624   1.289       .  A
O623       Zr652   2.417   1_565  S
O623        C624   1.285       .  A
C624        C801   1.485       .  S
Zr625      O1438   2.448       .  S
Zr625       O626   2.433       .  S
Zr625      O1443   2.434       .  S
Zr625       O631   2.370       .  S
Zr625      O1448   2.368       .  S
Zr625      O1471   2.372   1_565  S
O626        H669   0.990       .  S
O627      Zr1441   2.435       .  S
O627       H1484   0.991   1_455  S
O627       H1488   0.990       .  S
Zr628      O1432   2.444       .  S
Zr628       O629   2.438       .  S
Zr628      O1446   2.433       .  S
Zr628      O1244   2.365       .  S
Zr628      O1474   2.372   1_565  S
O629       H1486   0.990       .  S
O629        H673   0.990       .  S
O630      Zr1444   2.434       .  S
O630       H1479   0.990   1_455  S
O632      Zr1441   2.369       .  S
O632      Zr1240   2.367   1_556  S
O632       Zr652   2.381   1_565  S
O633       Zr645   2.441       .  S
O633        C635   1.288       .  A
O634        C635   1.284       .  A
C635        C748   1.481       .  S
O636      Zr1464   2.448       .  S
O636        C638   1.290       .  A
O637       Zr651   2.421       .  S
O637        C638   1.286       .  A
C638        C768   1.484       .  S
O639       Zr648   2.442       .  S
O639        C641   1.288       .  A
O640        C641   1.287       .  A
C641        C741   1.491       .  S
O642      Zr1461   2.443       .  S
O642        C644   1.288       .  A
O643        C644   1.285       .  A
C644        C788   1.486       .  S
Zr645      O1458   2.445   1_455  S
Zr645       O646   2.436       .  S
Zr645       O647   2.436       .  S
Zr645      O1266   2.370   1_455  S
Zr645      O1473   2.370   1_455  S
O646        H666   0.990       .  S
O646        H671   0.991       .  S
O647        H667   0.990       .  S
Zr648      O1452   2.445   1_455  S
Zr648       O649   2.433       .  S
Zr648       O650   2.436       .  S
Zr648      O1470   2.372   1_455  S
Zr648       O653   2.370       .  S
Zr648      O1472   2.370   1_455  S
O649       H1481   0.990       .  S
O650        H664   0.990       .  S
O650        H674   0.990       .  S
Zr651       O654   2.372       .  S
Zr651       O656   2.382       .  S
Zr652       O655   2.381       .  S
O654      Zr1257   2.370       .  S
O654      Zr1464   2.372       .  S
O655      Zr1441   2.371   1_545  S
O656      Zr1464   2.370       .  S
O656        H660   0.966       .  S
O657      Zr1461   2.368       .  S
O657        H662   0.965       .  S
O658      Zr1444   2.372   1_545  S
H663       O1446   0.990       .  S
H665       O1465   0.990       .  S
H668       O1443   0.991       .  S
H670       O1445   0.990       .  S
H672       O1443   0.990       .  S
O675       Zr687   2.438       .  S
O675        C677   1.288       .  A
O676       Zr713   2.410       .  S
O676        C677   1.284       .  A
C677        C811   1.485       .  S
O678       Zr690   2.447       .  S
O678        C680   1.289       .  A
O679       Zr714   2.424       .  S
O679        C680   1.287       .  A
C680        C798   1.487       .  S
O681       Zr690   2.437       .  S
O681        C683   1.287       .  A
O682       Zr713   2.423       .  S
O682        C683   1.287       .  A
C683        C778   1.493       .  S
O684       Zr687   2.443       .  S
O684        C686   1.288       .  A
O685       Zr714   2.421       .  S
O685        C686   1.286       .  A
C686        C761   1.494       .  S
Zr687       O688   2.432       .  S
Zr687       O689   2.435       .  S
Zr687       O693   2.370       .  S
Zr687       O694   2.365       .  S
Zr687       O717   2.372       .  S
Zr687       O719   2.373       .  S
O688        H731   0.990       .  S
O689        H730   0.991       .  S
O689        H734   0.990       .  S
Zr690       O691   2.437       .  S
Zr690       O692   2.433       .  S
Zr690       O694   2.367       .  S
Zr690       O693   2.372       .  S
Zr690       O718   2.374       .  S
Zr690       O720   2.373       .  S
O691        H732   0.990       .  S
O691        H735   0.990       .  S
O692        H725   0.990       .  S
O693       Zr713   2.377       .  S
O694       Zr714   2.378       .  S
O694        H721   0.967       .  S
O695       Zr707   2.439       .  S
O695        C697   1.287       .  A
O696       Zr714   2.419       .  S
O696        C697   1.286       .  A
C697        C738   1.488       .  S
O698       Zr710   2.445       .  S
O698        C700   1.289       .  A
O699       Zr713   2.410       .  S
O699        C700   1.284       .  A
C700        C791   1.485       .  S
O701       Zr710   2.442       .  S
O701        C703   1.288       .  A
O702       Zr714   2.409       .  S
O702        C703   1.284       .  A
C703        C751   1.479       .  S
O704       Zr707   2.450       .  S
O704        C706   1.290       .  A
O705       Zr713   2.424       .  S
O705        C706   1.287       .  A
C706        C771   1.487       .  S
Zr707       O708   2.436       .  S
Zr707       O709   2.434       .  S
Zr707       O715   2.371       .  S
Zr707       O716   2.370       .  S
Zr707       O719   2.370       .  S
Zr707       O717   2.375       .  S
O708        H728   0.990       .  S
O708        H733   0.990       .  S
O709        H729   0.990       .  S
Zr710       O711   2.433       .  S
Zr710       O712   2.434       .  S
Zr710       O716   2.370       .  S
Zr710       O715   2.370       .  S
Zr710       O720   2.377       .  S
Zr710       O718   2.369       .  S
O711        H727   0.990       .  S
O712        H726   0.990       .  S
O712        H736   0.990       .  S
Zr713       O716   2.374       .  S
Zr713       O718   2.383       .  S
Zr713       O719   2.383       .  S
Zr714       O715   2.385       .  S
Zr714       O717   2.382       .  S
Zr714       O720   2.382       .  S
O715        H723   0.967       .  S
O718        H722   0.966       .  S
O719        H724   0.965       .  S
C737        C738   1.410       .  A
C737        C742   1.397       .  A
C737        F744   1.358       .  S
C738        C739   1.409       .  A
C739        C740   1.398       .  A
C739        F746   1.358       .  S
C740        C741   1.412       .  A
C740        F745   1.358       .  S
C741        C742   1.410       .  A
C742        F743   1.358       .  S
C747        C748   1.410       .  A
C747        C752   1.396       .  A
C747        F754   1.358       .  S
C748        C749   1.408       .  A
C749        C750   1.396       .  A
C749        F756   1.358       .  S
C750        C751   1.409       .  A
C750        F755   1.359       .  S
C751        C752   1.407       .  A
C752        F753   1.358       .  S
C757        C758   1.412       .  A
C757        C762   1.398       .  A
C757        F764   1.358       .  S
C758        C759   1.411       .  A
C759        C760   1.398       .  A
C759        F766   1.358       .  S
C760        C761   1.412       .  A
C760        F765   1.358       .  S
C761        C762   1.411       .  A
C762        F763   1.358       .  S
C767        C768   1.406       .  A
C767        C772   1.398       .  A
C767        F774   1.358       .  S
C768        C769   1.409       .  A
C769        C770   1.403       .  A
C769        F776   1.359       .  S
C770        C771   1.410       .  A
C770        F775   1.358       .  S
C771        C772   1.409       .  A
C772        F773   1.358       .  S
C777        C778   1.411       .  A
C777        C782   1.397       .  A
C777        F784   1.358       .  S
C778        C779   1.412       .  A
C779        C780   1.398       .  A
C779        F786   1.358       .  S
C780        C781   1.411       .  A
C780        F785   1.358       .  S
C781        C782   1.412       .  A
C782        F783   1.358       .  S
C787        C788   1.409       .  A
C787        C792   1.398       .  A
C787        F794   1.357       .  S
C788        C789   1.409       .  A
C789        C790   1.398       .  A
C789        F796   1.358       .  S
C790        C791   1.410       .  A
C790        F795   1.358       .  S
C791        C792   1.409       .  A
C792        F793   1.358       .  S
C797        C798   1.410       .  A
C797        C802   1.399       .  A
C797        F804   1.358       .  S
C798        C799   1.408       .  A
C799        C800   1.399       .  A
C799        F806   1.358       .  S
C800        C801   1.409       .  A
C800        F805   1.358       .  S
C801        C802   1.409       .  A
C802        F803   1.358       .  S
C807        C808   1.410       .  A
C807        C812   1.395       .  A
C807        F814   1.358       .  S
C808        C809   1.410       .  A
C809        C810   1.395       .  A
C809        F816   1.358       .  S
C810        C811   1.410       .  A
C810        F815   1.358       .  S
C811        C812   1.410       .  A
C812        F813   1.358       .  S
O817       Zr829   2.440   1_655  S
O817        C819   1.288       .  A
O818      Zr1467   2.416       .  S
O818        C819   1.285       .  A
C819        C985   1.487       .  S
O820        C822   1.289       .  A
O821      Zr1060   2.417       .  S
O821        C822   1.285       .  A
C822        C962   1.490       .  S
O823       Zr832   2.437   1_655  S
O823        C825   1.287       .  A
O824      Zr1263   2.406   1_554  S
O824        C825   1.283       .  A
C825       C1012   1.485       .  S
O826        C828   1.288       .  A
O827       Zr856   2.421       .  S
O827        C828   1.286       .  A
C828       C1005   1.488       .  S
Zr829       O830   2.435       .  S
Zr829       O835   2.370   1_455  S
Zr829      O1269   2.370   1_455  S
O830        H873   0.990       .  S
Zr832       O833   2.437       .  S
Zr832      O1039   2.372   1_455  S
Zr832      O1268   2.372   1_455  S
O833        H877   0.990       .  S
O835      Zr1036   2.374   1_655  S
O835      Zr1467   2.379       .  S
O836       Zr856   2.378       .  S
O836       H1067   0.967       .  S
O837       Zr849   2.444       .  S
O837        C839   1.289       .  A
O838      Zr1264   2.412       .  S
O838        C839   1.285       .  A
C839        C952   1.483       .  S
O840        C842   1.289       .  A
O841       Zr855   2.420       .  S
O841        C842   1.286       .  A
C842        C972   1.487       .  S
O843       Zr852   2.435       .  S
O843        C845   1.287       .  A
O844      Zr1468   2.418   1_554  S
O844        C845   1.286       .  A
C845        C945   1.487       .  S
O846        C848   1.288       .  A
O847      Zr1059   2.414       .  S
O847        C848   1.285       .  A
C848        C992   1.491       .  S
Zr849       O850   2.436       .  S
Zr849       O851   2.436       .  S
Zr849      O1061   2.371       .  S
Zr849      O1267   2.376       .  S
O850        H870   0.990       .  S
O850        H875   0.991       .  S
O851        H871   0.990       .  S
Zr852       O853   2.433       .  S
Zr852       O854   2.435       .  S
Zr852       O857   2.370       .  S
Zr852      O1270   2.375       .  S
O854        H868   0.990       .  S
O854        H878   0.990       .  S
Zr855      O1430   2.415   1_544  S
Zr855      O1232   2.410   1_545  S
Zr855      O1051   2.418   1_554  S
Zr855      O1447   2.377   1_544  S
Zr855       O858   2.372       .  S
Zr855       O860   2.382       .  S
Zr855      O1065   2.384   1_554  S
Zr856      O1025   2.417       .  S
Zr856      O1246   2.411       .  S
Zr856      O1456   2.421       .  S
Zr856      O1469   2.381       .  S
Zr856       O859   2.383       .  S
Zr856      O1066   2.381       .  S
O857      Zr1053   2.371   1_554  S
O857      Zr1468   2.382   1_554  S
O857       H1069   0.967       .  S
O859      Zr1257   2.376       .  S
O860      Zr1240   2.373   1_645  S
O860        H864   0.966       .  S
O861      Zr1237   2.372   1_645  S
O861      Zr1059   2.383       .  S
O861        H866   0.966       .  S
O862      Zr1260   2.377       .  S
O862      Zr1060   2.381       .  S
H863       O1040   0.967       .  S
H865       O1061   0.967       .  S
O879       Zr891   2.433       .  S
O879        C881   1.287       .  A
O880       Zr917   2.406       .  S
O880        C881   1.284       .  A
C881       C1015   1.484       .  S
O882       Zr894   2.443       .  S
O882        C884   1.288       .  A
O883       Zr918   2.422       .  S
O883        C884   1.286       .  A
C884       C1002   1.489       .  S
O885       Zr894   2.439       .  S
O885        C887   1.288       .  A
O886       Zr917   2.416       .  S
O886        C887   1.285       .  A
C887        C982   1.485       .  S
O888       Zr891   2.445       .  S
O888        C890   1.289       .  A
O889       Zr918   2.420       .  S
O889        C890   1.286       .  A
C890        C965   1.489       .  S
Zr891       O892   2.433       .  S
Zr891       O893   2.435       .  S
Zr891       O897   2.373       .  S
Zr891       O898   2.369       .  S
Zr891       O921   2.365       .  S
Zr891       O923   2.372       .  S
O892        H935   0.990       .  S
O893        H934   0.990       .  S
O893        H938   0.990       .  S
Zr894       O895   2.437       .  S
Zr894       O896   2.434       .  S
Zr894       O898   2.367       .  S
Zr894       O897   2.368       .  S
Zr894       O922   2.374       .  S
Zr894       O924   2.373       .  S
O895        H936   0.990       .  S
O895        H939   0.990       .  S
O896        H929   0.990       .  S
O897       Zr917   2.376       .  S
O898       Zr918   2.379       .  S
O898        H925   0.967       .  S
O899       Zr911   2.441       .  S
O899        C901   1.288       .  A
O900       Zr918   2.413       .  S
O900        C901   1.285       .  A
C901        C942   1.487       .  S
O902       Zr914   2.441       .  S
O902        C904   1.288       .  A
O903       Zr917   2.416       .  S
O903        C904   1.285       .  A
C904        C995   1.491       .  S
O905       Zr914   2.438       .  S
O905        C907   1.287       .  A
O906       Zr918   2.413       .  S
O906        C907   1.285       .  A
C907        C955   1.483       .  S
O908       Zr911   2.444       .  S
O908        C910   1.289       .  A
O909       Zr917   2.419       .  S
O909        C910   1.286       .  A
C910        C975   1.486       .  S
Zr911       O912   2.436       .  S
Zr911       O913   2.435       .  S
Zr911       O919   2.370       .  S
Zr911       O920   2.371       .  S
Zr911       O923   2.368       .  S
Zr911       O921   2.374       .  S
O912        H932   0.990       .  S
O912        H937   0.990       .  S
O913        H933   0.990       .  S
Zr914       O915   2.434       .  S
Zr914       O916   2.434       .  S
Zr914       O920   2.370       .  S
Zr914       O919   2.369       .  S
Zr914       O924   2.376       .  S
Zr914       O922   2.370       .  S
O915        H931   0.990       .  S
O916        H930   0.990       .  S
O916        H940   0.990       .  S
Zr917       O920   2.374       .  S
Zr917       O922   2.381       .  S
Zr917       O923   2.383       .  S
Zr918       O919   2.384       .  S
Zr918       O921   2.380       .  S
Zr918       O924   2.381       .  S
O919        H927   0.967       .  S
O922        H926   0.966       .  S
O923        H928   0.965       .  S
C941        C942   1.411       .  A
C941        C946   1.396       .  A
C941        F948   1.358       .  S
C942        C943   1.410       .  A
C943        C944   1.396       .  A
C943        F950   1.358       .  S
C944        C945   1.411       .  A
C944        F949   1.358       .  S
C945        C946   1.409       .  A
C946        F947   1.358       .  S
C951        C952   1.410       .  A
C951        C956   1.397       .  A
C951        F958   1.358       .  S
C952        C953   1.408       .  A
C953        C954   1.396       .  A
C953        F960   1.358       .  S
C954        C955   1.410       .  A
C954        F959   1.358       .  S
C955        C956   1.409       .  A
C956        F957   1.358       .  S
C961        C962   1.411       .  A
C961        C966   1.399       .  A
C961        F968   1.357       .  S
C962        C963   1.410       .  A
C963        C964   1.398       .  A
C963        F970   1.358       .  S
C964        C965   1.410       .  A
C964        F969   1.358       .  S
C965        C966   1.410       .  A
C966        F967   1.358       .  S
C971        C972   1.410       .  A
C971        C976   1.400       .  A
C971        F978   1.358       .  S
C972        C973   1.410       .  A
C973        C974   1.398       .  A
C973        F980   1.358       .  S
C974        C975   1.409       .  A
C974        F979   1.358       .  S
C975        C976   1.410       .  A
C976        F977   1.358       .  S
C981        C982   1.409       .  A
C981        C986   1.397       .  A
C981        F988   1.358       .  S
C982        C983   1.409       .  A
C983        C984   1.398       .  A
C983        F990   1.358       .  S
C984        C985   1.410       .  A
C984        F989   1.357       .  S
C985        C986   1.410       .  A
C986        F987   1.358       .  S
C991        C992   1.411       .  A
C991        C996   1.397       .  A
C991        F998   1.358       .  S
C992        C993   1.411       .  A
C993        C994   1.398       .  A
C993       F1000   1.358       .  S
C994        C995   1.411       .  A
C994        F999   1.358       .  S
C995        C996   1.411       .  A
C996        F997   1.358       .  S
C1001      C1002   1.411       .  A
C1001      C1006   1.398       .  A
C1001      F1008   1.358       .  S
C1002      C1003   1.409       .  A
C1003      C1004   1.398       .  A
C1003      F1010   1.358       .  S
C1004      C1005   1.410       .  A
C1004      F1009   1.358       .  S
C1005      C1006   1.409       .  A
C1006      F1007   1.358       .  S
C1011      C1012   1.411       .  A
C1011      C1016   1.395       .  A
C1011      F1018   1.358       .  S
C1012      C1013   1.410       .  A
C1013      C1014   1.394       .  A
C1013      F1020   1.358       .  S
C1014      C1015   1.410       .  A
C1014      F1019   1.358       .  S
C1015      C1016   1.410       .  A
C1016      F1017   1.358       .  S
O1021     Zr1033   2.440   1_655  S
O1021      C1023   1.288       .  A
O1022     Zr1263   2.415       .  S
O1022      C1023   1.285       .  A
C1023      C1189   1.486       .  S
O1024      C1026   1.289       .  A
O1025      C1026   1.285       .  A
C1026      C1166   1.490       .  S
O1027     Zr1036   2.431   1_655  S
O1027      C1029   1.286       .  A
O1028     Zr1467   2.407       .  S
O1028      C1029   1.284       .  A
C1029      C1216   1.484       .  S
O1030      C1032   1.288       .  A
O1031     Zr1060   2.421   1_556  S
O1031      C1032   1.286       .  A
C1032      C1209   1.487       .  S
Zr1033     O1034   2.435       .  S
Zr1033     O1039   2.371   1_456  S
Zr1033     O1473   2.371   1_455  S
O1034      H1077   0.990   1_455  S
Zr1036     O1037   2.438       .  S
Zr1036     O1472   2.373   1_455  S
O1037      H1081   0.990       .  S
O1039     Zr1263   2.377   1_554  S
O1040     Zr1060   2.380       .  S
O1041     Zr1053   2.443       .  S
O1041      C1043   1.288       .  A
O1042     Zr1468   2.411       .  S
O1042      C1043   1.284       .  A
C1043      C1156   1.481       .  S
O1044      C1046   1.288       .  A
O1045     Zr1059   2.422       .  S
O1045      C1046   1.286       .  A
C1046      C1176   1.487       .  S
O1047     Zr1056   2.440       .  S
O1047      C1049   1.288       .  A
O1048     Zr1264   2.418       .  S
O1048      C1049   1.286       .  A
C1049      C1149   1.488       .  S
O1050      C1052   1.288       .  A
O1051      C1052   1.286       .  A
C1052      C1196   1.492       .  S
Zr1053     O1054   2.437       .  S
Zr1053     O1055   2.436       .  S
Zr1053     O1471   2.376       .  S
O1054      H1074   0.990       .  S
O1054      H1079   0.991       .  S
O1055      H1075   0.990       .  S
Zr1056     O1057   2.432       .  S
Zr1056     O1058   2.436       .  S
Zr1056     O1061   2.369       .  S
Zr1056     O1474   2.373       .  S
O1058      H1072   0.990       .  S
O1058      H1082   0.990       .  S
Zr1059     O1226   2.417   1_545  S
Zr1059     O1436   2.410   1_545  S
Zr1059     O1243   2.377   1_545  S
Zr1059     O1062   2.373       .  S
Zr1059     O1064   2.381       .  S
Zr1060     O1450   2.410   1_554  S
Zr1060     O1252   2.420       .  S
Zr1060     O1265   2.383   1_554  S
Zr1060     O1063   2.383   1_554  S
O1061     Zr1264   2.380       .  S
O1063     Zr1461   2.376       .  S
O1064     Zr1444   2.372   1_645  S
O1064      H1068   0.966       .  S
O1065     Zr1441   2.374   1_645  S
O1065      H1070   0.966       .  S
O1066     Zr1464   2.377       .  S
O1083     Zr1095   2.433       .  S
O1083      C1085   1.287       .  A
O1084     Zr1121   2.405       .  S
O1084      C1085   1.283       .  A
C1085      C1219   1.484       .  S
O1086     Zr1098   2.443       .  S
O1086      C1088   1.288       .  A
O1087     Zr1122   2.426       .  S
O1087      C1088   1.287       .  A
C1088      C1206   1.489       .  S
O1089     Zr1098   2.439       .  S
O1089      C1091   1.288       .  A
O1090     Zr1121   2.420       .  S
O1090      C1091   1.286       .  A
C1091      C1186   1.486       .  S
O1092     Zr1095   2.448       .  S
O1092      C1094   1.289       .  A
O1093     Zr1122   2.417       .  S
O1093      C1094   1.285       .  A
C1094      C1169   1.490       .  S
Zr1095     O1096   2.434       .  S
Zr1095     O1097   2.436       .  S
Zr1095     O1101   2.373       .  S
Zr1095     O1102   2.368       .  S
Zr1095     O1125   2.366       .  S
Zr1095     O1127   2.373       .  S
O1096      H1139   0.990       .  S
O1097      H1138   0.990       .  S
O1097      H1142   0.990       .  S
Zr1098     O1099   2.436       .  S
Zr1098     O1100   2.435       .  S
Zr1098     O1102   2.368       .  S
Zr1098     O1101   2.369       .  S
Zr1098     O1126   2.374       .  S
Zr1098     O1128   2.374       .  S
O1099      H1140   0.990       .  S
O1099      H1143   0.990       .  S
O1100      H1133   0.990       .  S
O1101     Zr1121   2.377       .  S
O1102     Zr1122   2.379       .  S
O1102      H1129   0.967       .  S
O1103     Zr1115   2.441       .  S
O1103      C1105   1.288       .  A
O1104     Zr1122   2.416       .  S
O1104      C1105   1.286       .  A
C1105      C1146   1.488       .  S
O1106     Zr1118   2.441       .  S
O1106      C1108   1.288       .  A
O1107     Zr1121   2.416       .  S
O1107      C1108   1.285       .  A
C1108      C1199   1.491       .  S
O1109     Zr1118   2.436       .  S
O1109      C1111   1.287       .  A
O1110     Zr1122   2.412       .  S
O1110      C1111   1.285       .  A
C1111      C1159   1.482       .  S
O1112     Zr1115   2.444       .  S
O1112      C1114   1.289       .  A
O1113     Zr1121   2.421       .  S
O1113      C1114   1.286       .  A
C1114      C1179   1.486       .  S
Zr1115     O1116   2.436       .  S
Zr1115     O1117   2.435       .  S
Zr1115     O1123   2.368       .  S
Zr1115     O1124   2.371       .  S
Zr1115     O1127   2.368       .  S
Zr1115     O1125   2.374       .  S
O1116      H1136   0.990       .  S
O1116      H1141   0.990       .  S
O1117      H1137   0.990       .  S
Zr1118     O1119   2.434       .  S
Zr1118     O1120   2.433       .  S
Zr1118     O1124   2.369       .  S
Zr1118     O1123   2.369       .  S
Zr1118     O1128   2.376       .  S
Zr1118     O1126   2.369       .  S
O1119      H1135   0.990       .  S
O1120      H1134   0.990       .  S
O1120      H1144   0.990       .  S
Zr1121     O1124   2.373       .  S
Zr1121     O1126   2.381       .  S
Zr1121     O1127   2.383       .  S
Zr1122     O1123   2.383       .  S
Zr1122     O1125   2.380       .  S
Zr1122     O1128   2.382       .  S
O1123      H1131   0.967       .  S
O1126      H1130   0.966       .  S
O1127      H1132   0.965       .  S
C1145      C1146   1.411       .  A
C1145      C1150   1.397       .  A
C1145      F1152   1.358       .  S
C1146      C1147   1.410       .  A
C1147      C1148   1.397       .  A
C1147      F1154   1.358       .  S
C1148      C1149   1.411       .  A
C1148      F1153   1.358       .  S
C1149      C1150   1.410       .  A
C1150      F1151   1.358       .  S
C1155      C1156   1.410       .  A
C1155      C1160   1.396       .  A
C1155      F1162   1.358       .  S
C1156      C1157   1.407       .  A
C1157      C1158   1.395       .  A
C1157      F1164   1.358       .  S
C1158      C1159   1.410       .  A
C1158      F1163   1.358       .  S
C1159      C1160   1.409       .  A
C1160      F1161   1.358       .  S
C1165      C1166   1.410       .  A
C1165      C1170   1.399       .  A
C1165      F1172   1.357       .  S
C1166      C1167   1.410       .  A
C1167      C1168   1.398       .  A
C1167      F1174   1.358       .  S
C1168      C1169   1.410       .  A
C1168      F1173   1.358       .  S
C1169      C1170   1.411       .  A
C1170      F1171   1.358       .  S
C1175      C1176   1.410       .  A
C1175      C1180   1.400       .  A
C1175      F1182   1.358       .  S
C1176      C1177   1.409       .  A
C1177      C1178   1.398       .  A
C1177      F1184   1.358       .  S
C1178      C1179   1.409       .  A
C1178      F1183   1.358       .  S
C1179      C1180   1.410       .  A
C1180      F1181   1.358       .  S
C1185      C1186   1.409       .  A
C1185      C1190   1.397       .  A
C1185      F1192   1.358       .  S
C1186      C1187   1.410       .  A
C1187      C1188   1.398       .  A
C1187      F1194   1.358       .  S
C1188      C1189   1.410       .  A
C1188      F1193   1.358       .  S
C1189      C1190   1.409       .  A
C1190      F1191   1.358       .  S
C1195      C1196   1.411       .  A
C1195      C1200   1.397       .  A
C1195      F1202   1.358       .  S
C1196      C1197   1.411       .  A
C1197      C1198   1.398       .  A
C1197      F1204   1.358       .  S
C1198      C1199   1.411       .  A
C1198      F1203   1.358       .  S
C1199      C1200   1.411       .  A
C1200      F1201   1.358       .  S
C1205      C1206   1.412       .  A
C1205      C1210   1.399       .  A
C1205      F1212   1.358       .  S
C1206      C1207   1.409       .  A
C1207      C1208   1.399       .  A
C1207      F1214   1.358       .  S
C1208      C1209   1.410       .  A
C1208      F1213   1.358       .  S
C1209      C1210   1.409       .  A
C1210      F1211   1.358       .  S
C1215      C1216   1.410       .  A
C1215      C1220   1.394       .  A
C1215      F1222   1.358       .  S
C1216      C1217   1.410       .  A
C1217      C1218   1.393       .  A
C1217      F1224   1.358       .  S
C1218      C1219   1.410       .  A
C1218      F1223   1.358       .  S
C1219      C1220   1.410       .  A
C1220      F1221   1.358       .  S
O1225     Zr1237   2.438   1_655  S
O1225      C1227   1.288       .  A
O1226      C1227   1.285       .  A
C1227      C1393   1.491       .  S
O1228      C1230   1.289       .  A
O1229     Zr1468   2.418   1_564  S
O1229      C1230   1.286       .  A
C1230      C1370   1.484       .  S
O1231     Zr1240   2.439   1_655  S
O1231      C1233   1.288       .  A
O1232      C1233   1.284       .  A
C1233      C1420   1.486       .  S
O1234      C1236   1.289       .  A
O1235     Zr1264   2.419   1_565  S
O1235      C1236   1.286       .  A
C1236      C1413   1.486       .  S
Zr1237     O1238   2.433       .  S
Zr1237     O1243   2.370   1_455  S
O1238      H1281   0.990       .  S
Zr1240     O1241   2.437       .  S
Zr1240     O1447   2.370   1_454  S
O1241      H1285   0.990       .  S
O1243     Zr1444   2.369   1_655  S
O1244     Zr1264   2.380   1_565  S
O1244      H1475   0.967       .  S
O1245     Zr1257   2.439       .  S
O1245      C1247   1.287       .  A
O1246      C1247   1.284       .  A
C1247      C1360   1.481       .  S
O1248      C1250   1.288       .  A
O1249     Zr1263   2.423   1_554  S
O1249      C1250   1.286       .  A
C1250      C1380   1.484       .  S
O1251     Zr1260   2.443       .  S
O1251      C1253   1.288       .  A
O1252      C1253   1.286       .  A
C1253      C1353   1.489       .  S
O1254      C1256   1.289       .  A
O1255     Zr1467   2.414       .  S
O1255      C1256   1.285       .  A
C1256      C1400   1.487       .  S
Zr1257     O1258   2.436       .  S
Zr1257     O1259   2.436       .  S
Zr1257     O1469   2.370       .  S
O1258      H1278   0.990       .  S
O1258      H1283   0.990       .  S
O1259      H1279   0.990       .  S
Zr1260     O1261   2.433       .  S
Zr1260     O1262   2.435       .  S
Zr1260     O1265   2.370   1_554  S
O1262      H1276   0.990       .  S
O1262      H1286   0.990       .  S
Zr1263     O1459   2.409       .  S
Zr1263     O1266   2.372       .  S
Zr1263     O1268   2.382   1_556  S
Zr1263     O1473   2.383       .  S
Zr1264     O1433   2.417   1_545  S
Zr1264     O1267   2.381       .  S
Zr1264     O1474   2.379       .  S
O1265     Zr1461   2.370       .  S
O1265      H1477   0.967       .  S
O1268      H1272   0.966       .  S
O1269     Zr1467   2.383       .  S
O1269      H1274   0.965       .  S
O1270     Zr1468   2.380   1_554  S
H1271      O1448   0.966       .  S
H1273      O1469   0.967       .  S
O1287     Zr1299   2.440       .  S
O1287      C1289   1.288       .  A
O1288     Zr1325   2.409       .  S
O1288      C1289   1.284       .  A
C1289      C1423   1.487       .  S
O1290     Zr1302   2.445       .  S
O1290      C1292   1.289       .  A
O1291     Zr1326   2.421       .  S
O1291      C1292   1.286       .  A
C1292      C1410   1.487       .  S
O1293     Zr1302   2.439       .  S
O1293      C1295   1.288       .  A
O1294     Zr1325   2.419       .  S
O1294      C1295   1.286       .  A
C1295      C1390   1.492       .  S
O1296     Zr1299   2.448       .  S
O1296      C1298   1.289       .  A
O1297     Zr1326   2.422       .  S
O1297      C1298   1.286       .  A
C1298      C1373   1.486       .  S
Zr1299     O1300   2.434       .  S
Zr1299     O1301   2.436       .  S
Zr1299     O1305   2.373       .  S
Zr1299     O1306   2.365       .  S
Zr1299     O1329   2.372       .  S
Zr1299     O1331   2.374       .  S
O1300      H1343   0.990       .  S
O1301      H1342   0.991       .  S
O1301      H1346   0.990       .  S
Zr1302     O1303   2.436       .  S
Zr1302     O1304   2.434       .  S
Zr1302     O1306   2.368       .  S
Zr1302     O1305   2.371       .  S
Zr1302     O1330   2.374       .  S
Zr1302     O1332   2.374       .  S
O1303      H1344   0.990       .  S
O1303      H1347   0.990       .  S
O1304      H1337   0.990       .  S
O1305     Zr1325   2.378       .  S
O1306     Zr1326   2.376       .  S
O1306      H1333   0.967       .  S
O1307     Zr1319   2.439       .  S
O1307      C1309   1.288       .  A
O1308     Zr1326   2.416       .  S
O1308      C1309   1.285       .  A
C1309      C1350   1.485       .  S
O1310     Zr1322   2.446       .  S
O1310      C1312   1.289       .  A
O1311     Zr1325   2.417       .  S
O1311      C1312   1.285       .  A
C1312      C1403   1.488       .  S
O1313     Zr1322   2.440       .  S
O1313      C1315   1.288       .  A
O1314     Zr1326   2.411       .  S
O1314      C1315   1.284       .  A
C1315      C1363   1.480       .  S
O1316     Zr1319   2.451       .  S
O1316      C1318   1.290       .  A
O1317     Zr1325   2.420       .  S
O1317      C1318   1.286       .  A
C1318      C1383   1.487       .  S
Zr1319     O1320   2.437       .  S
Zr1319     O1321   2.434       .  S
Zr1319     O1327   2.372       .  S
Zr1319     O1328   2.370       .  S
Zr1319     O1331   2.369       .  S
Zr1319     O1329   2.377       .  S
O1320      H1340   0.990       .  S
O1320      H1345   0.990       .  S
O1321      H1341   0.990       .  S
Zr1322     O1323   2.434       .  S
Zr1322     O1324   2.435       .  S
Zr1322     O1328   2.371       .  S
Zr1322     O1327   2.371       .  S
Zr1322     O1332   2.377       .  S
Zr1322     O1330   2.369       .  S
O1323      H1339   0.990       .  S
O1324      H1338   0.990       .  S
O1324      H1348   0.990       .  S
Zr1325     O1328   2.372       .  S
Zr1325     O1330   2.381       .  S
Zr1325     O1331   2.385       .  S
Zr1326     O1327   2.384       .  S
Zr1326     O1329   2.382       .  S
Zr1326     O1332   2.382       .  S
O1327      H1335   0.967       .  S
O1330      H1334   0.966       .  S
O1331      H1336   0.965       .  S
C1349      C1350   1.410       .  A
C1349      C1354   1.396       .  A
C1349      F1356   1.358       .  S
C1350      C1351   1.409       .  A
C1351      C1352   1.398       .  A
C1351      F1358   1.358       .  S
C1352      C1353   1.412       .  A
C1352      F1357   1.358       .  S
C1353      C1354   1.410       .  A
C1354      F1355   1.358       .  S
C1359      C1360   1.410       .  A
C1359      C1364   1.396       .  A
C1359      F1366   1.358       .  S
C1360      C1361   1.408       .  A
C1361      C1362   1.395       .  A
C1361      F1368   1.358       .  S
C1362      C1363   1.409       .  A
C1362      F1367   1.358       .  S
C1363      C1364   1.407       .  A
C1364      F1365   1.358       .  S
C1369      C1370   1.408       .  A
C1369      C1374   1.399       .  A
C1369      F1376   1.358       .  S
C1370      C1371   1.409       .  A
C1371      C1372   1.399       .  A
C1371      F1378   1.358       .  S
C1372      C1373   1.409       .  A
C1372      F1377   1.358       .  S
C1373      C1374   1.410       .  A
C1374      F1375   1.358       .  S
C1379      C1380   1.407       .  A
C1379      C1384   1.398       .  A
C1379      F1386   1.358       .  S
C1380      C1381   1.409       .  A
C1381      C1382   1.402       .  A
C1381      F1388   1.358       .  S
C1382      C1383   1.409       .  A
C1382      F1387   1.358       .  S
C1383      C1384   1.410       .  A
C1384      F1385   1.358       .  S
C1389      C1390   1.411       .  A
C1389      C1394   1.397       .  A
C1389      F1396   1.358       .  S
C1390      C1391   1.412       .  A
C1391      C1392   1.397       .  A
C1391      F1398   1.358       .  S
C1392      C1393   1.411       .  A
C1392      F1397   1.358       .  S
C1393      C1394   1.411       .  A
C1394      F1395   1.358       .  S
C1399      C1400   1.410       .  A
C1399      C1404   1.399       .  A
C1399      F1406   1.357       .  S
C1400      C1401   1.409       .  A
C1401      C1402   1.398       .  A
C1401      F1408   1.358       .  S
C1402      C1403   1.410       .  A
C1402      F1407   1.358       .  S
C1403      C1404   1.410       .  A
C1404      F1405   1.358       .  S
C1409      C1410   1.410       .  A
C1409      C1414   1.398       .  A
C1409      F1416   1.358       .  S
C1410      C1411   1.409       .  A
C1411      C1412   1.398       .  A
C1411      F1418   1.358       .  S
C1412      C1413   1.410       .  A
C1412      F1417   1.358       .  S
C1413      C1414   1.409       .  A
C1414      F1415   1.358       .  S
C1419      C1420   1.410       .  A
C1419      C1424   1.396       .  A
C1419      F1426   1.358       .  S
C1420      C1421   1.410       .  A
C1421      C1422   1.396       .  A
C1421      F1428   1.358       .  S
C1422      C1423   1.411       .  A
C1422      F1427   1.358       .  S
C1423      C1424   1.410       .  A
C1424      F1425   1.358       .  S
O1429     Zr1441   2.441   1_655  S
O1429      C1431   1.288       .  A
O1430      C1431   1.285       .  A
C1431      C1597   1.492       .  S
O1432      C1434   1.288       .  A
O1433      C1434   1.286       .  A
C1434      C1574   1.485       .  S
O1435     Zr1444   2.436   1_655  S
O1435      C1437   1.287       .  A
O1436      C1437   1.284       .  A
C1437      C1624   1.485       .  S
O1438      C1440   1.289       .  A
O1439     Zr1468   2.420   1_565  S
O1439      C1440   1.286       .  A
C1440      C1617   1.487       .  S
Zr1441     O1442   2.433       .  S
Zr1441     O1447   2.371   1_455  S
O1442      H1485   0.990       .  S
Zr1444     O1445   2.437       .  S
O1445      H1489   0.990       .  S
O1448     Zr1468   2.379   1_565  S
O1449     Zr1461   2.437       .  S
O1449      C1451   1.287       .  A
O1450      C1451   1.284       .  A
C1451      C1564   1.480       .  S
O1452      C1454   1.289       .  A
O1453     Zr1467   2.424       .  S
O1453      C1454   1.286       .  A
C1454      C1584   1.486       .  S
O1455     Zr1464   2.447       .  S
O1455      C1457   1.289       .  A
O1456      C1457   1.286       .  A
C1457      C1557   1.491       .  S
O1458      C1460   1.289       .  A
O1459      C1460   1.284       .  A
C1460      C1604   1.488       .  S
Zr1461     O1462   2.436       .  S
Zr1461     O1463   2.436       .  S
O1462      H1482   0.990       .  S
O1462      H1487   0.990       .  S
O1463      H1483   0.990       .  S
Zr1464     O1465   2.434       .  S
Zr1464     O1466   2.436       .  S
Zr1464     O1469   2.369       .  S
O1466      H1480   0.990       .  S
O1466      H1490   0.990       .  S
Zr1467     O1470   2.372       .  S
Zr1467     O1472   2.384       .  S
Zr1468     O1471   2.381       .  S
O1472      H1476   0.966       .  S
O1473      H1478   0.965       .  S
O1491     Zr1503   2.436       .  S
O1491      C1493   1.287       .  A
O1492     Zr1529   2.410       .  S
O1492      C1493   1.284       .  A
C1493      C1627   1.486       .  S
O1494     Zr1506   2.440       .  S
O1494      C1496   1.287       .  A
O1495     Zr1530   2.423       .  S
O1495      C1496   1.287       .  A
C1496      C1614   1.485       .  S
O1497     Zr1506   2.437       .  S
O1497      C1499   1.287       .  A
O1498     Zr1529   2.422       .  S
O1498      C1499   1.286       .  A
C1499      C1594   1.493       .  S
O1500     Zr1503   2.443       .  S
O1500      C1502   1.289       .  A
O1501     Zr1530   2.418       .  S
O1501      C1502   1.286       .  A
C1502      C1577   1.486       .  S
Zr1503     O1504   2.433       .  S
Zr1503     O1505   2.435       .  S
Zr1503     O1509   2.372       .  S
Zr1503     O1510   2.364       .  S
Zr1503     O1533   2.371       .  S
Zr1503     O1535   2.373       .  S
O1504      H1547   0.990       .  S
O1505      H1546   0.991       .  S
O1505      H1550   0.990       .  S
Zr1506     O1507   2.437       .  S
Zr1506     O1508   2.434       .  S
Zr1506     O1510   2.366       .  S
Zr1506     O1509   2.370       .  S
Zr1506     O1534   2.374       .  S
Zr1506     O1536   2.374       .  S
O1507      H1548   0.990       .  S
O1507      H1551   0.990       .  S
O1508      H1541   0.990       .  S
O1509     Zr1529   2.378       .  S
O1510     Zr1530   2.377       .  S
O1510      H1537   0.967       .  S
O1511     Zr1523   2.438       .  S
O1511      C1513   1.287       .  A
O1512     Zr1530   2.419       .  S
O1512      C1513   1.286       .  A
C1513      C1554   1.486       .  S
O1514     Zr1526   2.443       .  S
O1514      C1516   1.289       .  A
O1515     Zr1529   2.415       .  S
O1515      C1516   1.285       .  A
C1516      C1607   1.490       .  S
O1517     Zr1526   2.440       .  S
O1517      C1519   1.288       .  A
O1518     Zr1530   2.411       .  S
O1518      C1519   1.285       .  A
C1519      C1567   1.480       .  S
O1520     Zr1523   2.449       .  S
O1520      C1522   1.290       .  A
O1521     Zr1529   2.423       .  S
O1521      C1522   1.287       .  A
C1522      C1587   1.488       .  S
Zr1523     O1524   2.436       .  S
Zr1523     O1525   2.435       .  S
Zr1523     O1531   2.371       .  S
Zr1523     O1532   2.370       .  S
Zr1523     O1535   2.368       .  S
Zr1523     O1533   2.376       .  S
O1524      H1544   0.990       .  S
O1524      H1549   0.990       .  S
O1525      H1545   0.990       .  S
Zr1526     O1527   2.433       .  S
Zr1526     O1528   2.435       .  S
Zr1526     O1532   2.371       .  S
Zr1526     O1531   2.370       .  S
Zr1526     O1536   2.375       .  S
Zr1526     O1534   2.368       .  S
O1527      H1543   0.990       .  S
O1528      H1542   0.990       .  S
O1528      H1552   0.990       .  S
Zr1529     O1532   2.372       .  S
Zr1529     O1534   2.382       .  S
Zr1529     O1535   2.383       .  S
Zr1530     O1531   2.382       .  S
Zr1530     O1533   2.381       .  S
Zr1530     O1536   2.380       .  S
O1531      H1539   0.967       .  S
O1534      H1538   0.966       .  S
O1535      H1540   0.965       .  S
C1553      C1554   1.410       .  A
C1553      C1558   1.398       .  A
C1553      F1560   1.358       .  S
C1554      C1555   1.408       .  A
C1555      C1556   1.398       .  A
C1555      F1562   1.358       .  S
C1556      C1557   1.412       .  A
C1556      F1561   1.358       .  S
C1557      C1558   1.411       .  A
C1558      F1559   1.358       .  S
C1563      C1564   1.409       .  A
C1563      C1568   1.396       .  A
C1563      F1570   1.358       .  S
C1564      C1565   1.408       .  A
C1565      C1566   1.395       .  A
C1565      F1572   1.358       .  S
C1566      C1567   1.409       .  A
C1566      F1571   1.358       .  S
C1567      C1568   1.408       .  A
C1568      F1569   1.358       .  S
C1573      C1574   1.409       .  A
C1573      C1578   1.398       .  A
C1573      F1580   1.358       .  S
C1574      C1575   1.410       .  A
C1575      C1576   1.398       .  A
C1575      F1582   1.358       .  S
C1576      C1577   1.409       .  A
C1576      F1581   1.358       .  S
C1577      C1578   1.410       .  A
C1578      F1579   1.358       .  S
C1583      C1584   1.408       .  A
C1583      C1588   1.399       .  A
C1583      F1590   1.358       .  S
C1584      C1585   1.409       .  A
C1585      C1586   1.402       .  A
C1585      F1592   1.358       .  S
C1586      C1587   1.410       .  A
C1586      F1591   1.358       .  S
C1587      C1588   1.410       .  A
C1588      F1589   1.358       .  S
C1593      C1594   1.411       .  A
C1593      C1598   1.397       .  A
C1593      F1600   1.358       .  S
C1594      C1595   1.412       .  A
C1595      C1596   1.398       .  A
C1595      F1602   1.358       .  S
C1596      C1597   1.411       .  A
C1596      F1601   1.358       .  S
C1597      C1598   1.411       .  A
C1598      F1599   1.358       .  S
C1603      C1604   1.411       .  A
C1603      C1608   1.398       .  A
C1603      F1610   1.358       .  S
C1604      C1605   1.409       .  A
C1605      C1606   1.397       .  A
C1605      F1612   1.358       .  S
C1606      C1607   1.411       .  A
C1606      F1611   1.358       .  S
C1607      C1608   1.411       .  A
C1608      F1609   1.358       .  S
C1613      C1614   1.410       .  A
C1613      C1618   1.398       .  A
C1613      F1620   1.358       .  S
C1614      C1615   1.407       .  A
C1615      C1616   1.398       .  A
C1615      F1622   1.358       .  S
C1616      C1617   1.410       .  A
C1616      F1621   1.358       .  S
C1617      C1618   1.409       .  A
C1618      F1619   1.358       .  S
C1623      C1624   1.410       .  A
C1623      C1628   1.395       .  A
C1623      F1630   1.358       .  S
C1624      C1625   1.410       .  A
C1625      C1626   1.395       .  A
C1625      F1632   1.358       .  S
C1626      C1627   1.411       .  A
C1626      F1631   1.358       .  S
C1627      C1628   1.410       .  A
C1628      F1629   1.358       .  S
