geometry optimzed in LAMMPS
_audit_creation_date              2020-11-30 
_audit_creation_method            'lammps2cif' 
_symmetry_space_group_name_H-M    'P1' 
_symmetry_Int_Tables_number       1 
_symmetry_cell_setting            triclinic 
loop_ 
_symmetry_equiv_pos_as_xyz 
  x,y,z 
_cell_length_a                    54.43721395 
_cell_length_b                    54.67570396794052 
_cell_length_c                    54.285913150565484 
_cell_angle_alpha                 90.63791624298194 
_cell_angle_beta                  90.40155409568133 
_cell_angle_gamma                 89.79657842833758 
loop_ 
_atom_site_label 
_atom_site_type_symbol 
_atom_site_fract_x 
_atom_site_fract_y 
_atom_site_fract_z 
_atom_site_charge 
C1          C  0.19460038  0.20221276  0.19169821    -0.01900
C2          C  0.08172879  0.08969010  0.08572723    -0.01900
C3          C  0.94926739  0.58482272  0.43455910    -0.01900
C4          C  0.82967996  0.69622870  0.33600117    -0.01900
C5          C  0.59019660  0.44073164  0.94552187    -0.01900
C6          C  0.70274867  0.33110339  0.83480837    -0.01900
C7          C  0.43737464  0.94785953  0.58031117    -0.01900
C8          C  0.33867142  0.82978805  0.68713545    -0.01900
O9          O  0.54235926  0.40263739  0.12791882    -0.57200
C10         C  0.48354311  0.39062904  0.16122165     0.75400
O11         O  0.54158897  0.34175462  0.19109030    -0.58400
C12         C  0.56040397  0.39006343  0.12032026     0.75400
C13         C  0.55563873  0.41572385  0.20295680     0.77800
Cd14       Cd  0.53559822  0.38062026  0.16657741     1.37500
O15         O  0.49901740  0.39917364  0.14631454    -0.57200
O16         O  0.53347211  0.40901246  0.20298210    -0.56000
C17         C  0.53176465  0.32786203  0.17494190     0.77700
O18         O  0.56922531  0.40499902  0.18736029    -0.58400
O19         O  0.49236539  0.37837284  0.17877515    -0.56900
O20         O  0.56722169  0.37260909  0.13399485    -0.56800
O21         O  0.52645835  0.33808148  0.15486749    -0.56000
O22         O  0.29116786  0.41107215  0.11662506    -0.57200
C23         C  0.23518978  0.37332804  0.13533469     0.75400
O24         O  0.21383991  0.43812432  0.15379959    -0.58400
C25         C  0.30135150  0.41769067  0.13663266     0.75400
C26         C  0.24905658  0.44186270  0.07794838     0.77800
Cd27       Cd  0.24937016  0.42382668  0.12803378     1.37500
O28         O  0.25268526  0.38350492  0.14683813    -0.57200
O29         O  0.26065068  0.45246330  0.09523926    -0.56000
C30         C  0.22521890  0.45573682  0.16393753     0.77700
O31         O  0.23529633  0.42452722  0.08440599    -0.58400
O32         O  0.22327386  0.38686907  0.12064927    -0.56900
O33         O  0.28724001  0.42695340  0.15264303    -0.56800
O34         O  0.24662451  0.45948630  0.15605892    -0.56000
O35         O  0.16128215  0.49539613  0.39908873    -0.57200
C36         C  0.12753868  0.55079049  0.38801916     0.75400
O37         O  0.20478463  0.53012140  0.41615587    -0.58400
C38         C  0.17719546  0.48121378  0.38972443     0.75400
C39         C  0.19016934  0.53126088  0.32875243     0.77800
Cd40       Cd  0.17723297  0.53271695  0.38064652     1.37500
O41         O  0.13386461  0.52876842  0.39125028    -0.57200
O42         O  0.20639473  0.53432072  0.34529577    -0.56000
C43         C  0.20842456  0.55265205  0.41966993     0.77700
O44         O  0.16820259  0.53176899  0.33611261    -0.58400
O45         O  0.14448933  0.56494284  0.38105557    -0.56900
O46         O  0.19292920  0.49108465  0.37606335    -0.56800
O47         O  0.19845868  0.56676052  0.40412643    -0.56000
O48         O  0.15714658  0.25183097  0.37660182    -0.57200
C49         C  0.15840364  0.30060811  0.41505315     0.75400
O50         O  0.11221097  0.26797682  0.44304244    -0.58400
C51         C  0.15014848  0.23078173  0.36985045     0.75400
C52         C  0.18363818  0.22718415  0.44923940     0.77800
Cd53       Cd  0.14579399  0.24997517  0.41917995     1.37500
O54         O  0.14687267  0.28907071  0.39832129    -0.57200
O55         O  0.16149385  0.22745455  0.45625156    -0.56000
C56         C  0.09497796  0.25510188  0.43420801     0.77700
O57         O  0.18747650  0.23576915  0.42815063    -0.58400
O58         O  0.16406060  0.28846872  0.43396662    -0.56900
O59         O  0.14062790  0.21776115  0.38645658    -0.56800
O60         O  0.10146453  0.23798827  0.41972275    -0.56000
O61         O  0.41773073  0.13611099  0.53533397    -0.57200
C62         C  0.40902165  0.17362247  0.48098605     0.75400
O63         O  0.35567690  0.16630716  0.51920145    -0.58400
C64         C  0.40531875  0.12823007  0.55315475     0.75400
C65         C  0.43114332  0.21253761  0.55190378     0.77800
Cd66       Cd  0.39734152  0.17627724  0.53217801     1.37500
O67         O  0.41974924  0.16027452  0.49664426    -0.57200
O68         O  0.42598108  0.21026914  0.52935078    -0.56000
C69         C  0.34481759  0.18475590  0.52812980     0.77700
O70         O  0.41936215  0.19881473  0.56628338    -0.58400
O71         O  0.39350655  0.18880325  0.48936482    -0.56900
O72         O  0.38981552  0.14306703  0.56222162    -0.56800
O73         O  0.35819867  0.19948898  0.54043554    -0.56000
O74         O  0.37085556  0.13667051  0.24721011    -0.57200
C75         C  0.41317658  0.14677083  0.29778956     0.75400
O76         O  0.44624969  0.10170560  0.25545683    -0.58400
C77         C  0.36706489  0.13853726  0.22432969     0.75400
C78         C  0.44481816  0.17330689  0.22414853     0.77800
Cd79       Cd  0.41567755  0.13420093  0.24604688     1.37500
O80         O  0.39477621  0.13866851  0.28604108    -0.57200
O81         O  0.42811974  0.17710514  0.23983512    -0.56000
C82         C  0.43324320  0.08354125  0.24934955     0.77700
O83         O  0.44751269  0.15115481  0.21746336    -0.58400
O84         O  0.43257682  0.14916291  0.28539519    -0.56900
O85         O  0.38598748  0.13787924  0.21079798    -0.56800
O86         O  0.41293481  0.08881329  0.23923732    -0.56000
O87         O  0.79033098  0.12270062  0.88364053    -0.57200
C88         C  0.73041892  0.15568976  0.88606366     0.75400
O89         O  0.72042726  0.07656852  0.87534342    -0.58400
C90         C  0.80173963  0.10258926  0.88421971     0.75400
C91         C  0.75101172  0.09868474  0.94697361     0.77800
Cd92       Cd  0.74996016  0.10729141  0.89421601     1.37500
O93         O  0.75299853  0.15036144  0.88489392    -0.57200
O94         O  0.74623402  0.08144443  0.93192335    -0.56000
C95         C  0.72832017  0.07950459  0.85361086     0.77700
O96         O  0.75253035  0.11969146  0.93768734    -0.58400
O97         O  0.71616764  0.13833430  0.89171927    -0.56900
O98         O  0.78908961  0.08417218  0.89003973    -0.56800
O99         O  0.74551924  0.09468632  0.85147237    -0.56000
O100        O  0.02894082  0.12757699  0.90102543    -0.57200
C101        C  0.98299238  0.11283390  0.86153006     0.75400
O102        O  0.04534535  0.17555263  0.84280650    -0.58400
C103        C  0.05101569  0.13222559  0.90663645     0.75400
C104        C  0.05364229  0.09761857  0.82408294     0.77800
Cd105      Cd  0.03125307  0.13373026  0.85703626     1.37500
O106        O  0.99821931  0.11343394  0.87917629    -0.57200
O107        O  0.03804602  0.11306797  0.81668303    -0.56000
C108        C  0.02433708  0.18537012  0.84499289     0.77700
O109        O  0.06039731  0.10021871  0.84628347    -0.58400
O110        O  0.99063199  0.12094028  0.84121258    -0.56900
O111        O  0.06463661  0.13850557  0.88892162    -0.56800
O112        O  0.00769248  0.17136315  0.85246017    -0.56000
O113        O  0.90209170  0.40786969  0.49642764    -0.57200
C114        C  0.91620489  0.36474409  0.54453924     0.75400
O115        O  0.85715182  0.34333164  0.48257513    -0.58400
C116        C  0.90078292  0.41137766  0.47348494     0.75400
C117        C  0.93099271  0.32907946  0.47480268     0.77800
Cd118      Cd  0.89659035  0.36394099  0.49514237     1.37500
O119        O  0.92509994  0.37810787  0.52799780    -0.57200
O120        O  0.92878509  0.35039597  0.46624298    -0.56000
C121        C  0.84411832  0.35511747  0.49796437     0.77700
O122        O  0.91545060  0.32311431  0.49081565    -0.58400
O123        O  0.89886532  0.35080527  0.53784559    -0.56900
O124        O  0.89711445  0.39264467  0.45998073    -0.56800
O125        O  0.85522141  0.37126851  0.51043959    -0.56000
O126        O  0.90798176  0.37902589  0.73981959    -0.57200
C127        C  0.87979408  0.37809295  0.80206520     0.75400
O128        O  0.95637953  0.36973098  0.80975871    -0.58400
C129        C  0.92744548  0.38119257  0.72746407     0.75400
C130        C  0.93593101  0.44141651  0.77640940     0.77800
Cd131      Cd  0.92655140  0.38910392  0.77969721     1.37500
O132        O  0.88492308  0.37407646  0.77971861    -0.57200
O133        O  0.91479471  0.43221541  0.77383787    -0.56000
C134        C  0.95853780  0.35018595  0.79706289     0.77700
O135        O  0.95254341  0.42670070  0.78339656    -0.58400
O136        O  0.89672549  0.38785390  0.81496041    -0.56900
O137        O  0.94671014  0.38657527  0.73951176    -0.56800
O138        O  0.94623085  0.34937739  0.77732788    -0.56000
O139        O  0.27229481  0.65329184  0.63160839    -0.57200
C140        C  0.22705331  0.61477582  0.65789514     0.75400
O141        O  0.25310839  0.58901008  0.60686658    -0.58400
C142        C  0.29455550  0.65888341  0.63474747     0.75400
C143        C  0.29966617  0.58164180  0.67788262     0.77800
Cd144      Cd  0.27586835  0.60976393  0.63955146     1.37500
O145        O  0.23994882  0.63298276  0.65217966    -0.57200
O146        O  0.28973537  0.60221111  0.68177897    -0.56000
C147        C  0.26902872  0.59060285  0.59023134     0.77700
O148        O  0.30001314  0.57441129  0.65562737    -0.58400
O149        O  0.23723472  0.59398720  0.65610643    -0.56900
O150        O  0.30896899  0.64118082  0.63933616    -0.56800
O151        O  0.28941312  0.59977711  0.59683076    -0.56000
O152        O  0.00074084  0.63148449  0.61947003    -0.57200
C153        C  0.04640863  0.62653226  0.67374312     0.75400
O154        O  0.00910106  0.67959133  0.65456161    -0.58400
C155        C  0.97859901  0.63446366  0.61296696     0.75400
C156        C  0.97275218  0.59910622  0.69096988     0.77800
Cd157      Cd  0.99593771  0.63824586  0.66357856     1.37500
O158        O  0.03552915  0.61954081  0.65429686    -0.57200
O159        O  0.98666092  0.59577247  0.67275237    -0.56000
C160        C  0.00042727  0.69032012  0.67332122     0.77700
O161        O  0.96834247  0.62128232  0.69665928    -0.58400
O162        O  0.03364712  0.63864612  0.68898603    -0.56900
O163        O  0.96381435  0.63979327  0.63021369    -0.56800
O164        O  0.98708565  0.67727287  0.68703312    -0.56000
O165        O  0.13537452  0.88488846  0.78350012    -0.57200
C166        C  0.16256412  0.87834617  0.72101265     0.75400
O167        O  0.08321958  0.86782674  0.71409441    -0.58400
C168        C  0.11667084  0.87759553  0.79497337     0.75400
C169        C  0.09959743  0.93669173  0.74529122     0.77800
Cd170      Cd  0.11517351  0.88591768  0.74280837     1.37500
O171        O  0.15862210  0.87560475  0.74373966    -0.57200
O172        O  0.12018287  0.93058093  0.73649803    -0.56000
C173        C  0.08719879  0.84600820  0.72084329     0.77700
O174        O  0.08538238  0.91917997  0.75015113    -0.58400
O175        O  0.14458869  0.88563546  0.70798617    -0.56900
O176        O  0.09749040  0.87430653  0.78215766    -0.56800
O177        O  0.10359980  0.84332562  0.73711944    -0.56000
O178        O  0.11964023  0.90741976  0.02995634    -0.57200
C179        C  0.12157908  0.86306601  0.97927607     0.75400
O180        O  0.17270002  0.87356903  0.03329215    -0.58400
C181        C  0.12118488  0.91158451  0.05287084     0.75400
C182        C  0.08817545  0.83539109  0.05158458     0.77800
Cd183      Cd  0.12821763  0.86389957  0.03146701     1.37500
O184        O  0.11888563  0.88258289  0.99170947    -0.57200
O185        O  0.08614972  0.84918366  0.03319988    -0.56000
C186        C  0.18037526  0.85223592  0.02848450     0.77700
O187        O  0.10944305  0.83418600  0.06127083    -0.58400
O188        O  0.12573497  0.84380783  0.99128369    -0.56900
O189        O  0.12638787  0.89350404  0.06644099    -0.56800
O190        O  0.16409563  0.83574524  0.02846981    -0.56000
O191        O  0.34912431  0.53873934  0.87731242    -0.57200
C192        C  0.41271034  0.47930490  0.89347751     0.75400
O193        O  0.34185144  0.46393685  0.90636275    -0.58400
C194        C  0.36268264  0.54819325  0.89379783     0.75400
C195        C  0.35050927  0.49424451  0.83078075     0.77800
Cd196      Cd  0.36325901  0.49669415  0.88283442     1.37500
O197        O  0.40766809  0.50121543  0.88815702    -0.57200
O198        O  0.37230618  0.49731067  0.83831204    -0.56000
C199        C  0.32804574  0.47871207  0.91801260     0.77700
O200        O  0.33517091  0.48902378  0.84723495    -0.58400
O201        O  0.39463753  0.46472431  0.89324664    -0.56900
O202        O  0.37678020  0.53374327  0.90528222    -0.56800
O203        O  0.33061568  0.50105705  0.91317603    -0.56000
O204        O  0.36779200  0.77956914  0.87569054    -0.57200
C205        C  0.37199354  0.73077773  0.91613510     0.75400
O206        O  0.41315252  0.76685573  0.94526630    -0.58400
C207        C  0.37472084  0.80048984  0.86894411     0.75400
C208        C  0.34081083  0.80562358  0.94834844     0.77800
Cd209      Cd  0.37974335  0.78267061  0.91914148     1.37500
O210        O  0.38304369  0.74245980  0.89959739    -0.57200
O211        O  0.33710251  0.79452121  0.92816732    -0.56000
C212        C  0.43050390  0.77904396  0.93621592     0.77700
O213        O  0.36308049  0.80734986  0.95508489    -0.58400
O214        O  0.36377742  0.74341396  0.93393741    -0.56900
O215        O  0.38430989  0.81377867  0.88572959    -0.56800
O216        O  0.42402344  0.79534180  0.92105223    -0.56000
O217        O  0.65493765  0.63731972  0.28073508    -0.57200
C218        C  0.61443468  0.63841092  0.22677507     0.75400
O219        O  0.58332531  0.59554715  0.27123759    -0.58400
C220        C  0.65706287  0.63948116  0.30386853     0.75400
C221        C  0.58105810  0.67267769  0.29530187     0.77800
Cd222      Cd  0.61080652  0.63113644  0.27903808     1.37500
O223        O  0.63328417  0.63503517  0.24005892    -0.57200
O224        O  0.59833301  0.67413069  0.28003459    -0.56000
C225        C  0.59763132  0.57897106  0.27889170     0.77700
O226        O  0.57704110  0.65147805  0.30369870    -0.58400
O227        O  0.59409077  0.63824208  0.23786490    -0.56900
O228        O  0.63742970  0.63787695  0.31621151    -0.56800
O229        O  0.61708870  0.58662830  0.28915922    -0.56000
O230        O  0.60886884  0.63116935  0.98339416    -0.57200
C231        C  0.62087872  0.66311082  0.04320771     0.75400
O232        O  0.66835451  0.69534229  0.98637678    -0.58400
C233        C  0.62339676  0.62257923  0.96735860     0.75400
C234        C  0.59545468  0.70420507  0.97255080     0.77800
Cd235      Cd  0.63101925  0.66923624  0.99166125     1.37500
O236        O  0.61515006  0.64702746  0.02730492    -0.57200
O237        O  0.60111148  0.70249648  0.99502185    -0.56000
C238        C  0.68292208  0.68043174  0.99671595     0.77700
O239        O  0.60742878  0.69046461  0.95796475    -0.58400
O240        O  0.63042485  0.68236557  0.03491380    -0.56900
O241        O  0.64097739  0.63635435  0.96125304    -0.56800
O242        O  0.67382441  0.66001945  0.00223819    -0.56000
O243        O  0.65005181  0.24580028  0.62923687    -0.57200
C244        C  0.65396952  0.30586250  0.65528498     0.75400
O245        O  0.69010239  0.28799342  0.59378995    -0.58400
C246        C  0.65525570  0.23268200  0.61065753     0.75400
C247        C  0.59574832  0.28453020  0.59094797     0.77800
Cd248      Cd  0.64713130  0.28452076  0.60669007     1.37500
O249        O  0.64682919  0.28420217  0.65145055    -0.57200
O250        O  0.61239998  0.27265373  0.57996502    -0.56000
C251        C  0.68681247  0.30216097  0.57580082     0.77700
O252        O  0.60319858  0.29894953  0.60776494    -0.58400
O253        O  0.65765025  0.31861550  0.63627651    -0.56900
O254        O  0.65753921  0.24385620  0.59057667    -0.56800
O255        O  0.66481580  0.30909477  0.57228362    -0.56000
O256        O  0.62762367  0.99459059  0.61626562    -0.57200
C257        C  0.66592859  0.04965060  0.63113248     0.75400
O258        O  0.68934821  0.98925910  0.67948556    -0.58400
C259        C  0.61635259  0.97915269  0.62911374     0.75400
C260        C  0.69629276  0.97142150  0.60773038     0.77800
Cd261      Cd  0.66454665  0.99791515  0.64166615     1.37500
O262        O  0.64650072  0.03718101  0.62873585    -0.57200
O263        O  0.69891512  0.99392940  0.61245164    -0.56000
C264        C  0.67528781  0.00063093  0.69418445     0.77700
O265        O  0.68002285  0.96041233  0.61985866    -0.58400
O266        O  0.68486341  0.03783919  0.63753072    -0.56900
O267        O  0.62741406  0.97211844  0.64844713    -0.56800
O268        O  0.65551302  0.00847679  0.68480403    -0.56000
O269        O  0.86569061  0.75524324  0.15256983    -0.57200
C270        C  0.86484643  0.80135056  0.10995319     0.75400
O271        O  0.91755018  0.74048912  0.08619818    -0.58400
C272        C  0.87358276  0.73499486  0.16040068     0.75400
C273        C  0.84250586  0.72490551  0.07962312     0.77800
Cd274      Cd  0.87897759  0.75055928  0.11006526     1.37500
O275        O  0.85518801  0.78596574  0.12404142    -0.57200
O276        O  0.84910018  0.71731624  0.10055277    -0.56000
C277        C  0.93168620  0.75264782  0.10034044     0.77700
O278        O  0.85432107  0.74307254  0.07176236    -0.58400
O279        O  0.87987267  0.79283297  0.09436429    -0.56900
O280        O  0.88437450  0.72145438  0.14463934    -0.56800
O281        O  0.92167129  0.76140723  0.11941042    -0.56000
O282        O  0.90371361  0.02840252  0.15244123    -0.57200
C283        C  0.86033037  0.98296059  0.13736397     0.75400
O284        O  0.83165651  0.02143780  0.18173653    -0.58400
C285        C  0.90997453  0.04955524  0.14588966     0.75400
C286        C  0.83347169  0.05573136  0.10679678     0.77800
Cd287      Cd  0.85928694  0.03430476  0.14869934     1.37500
O288        O  0.87970588  0.99478183  0.14222553    -0.57200
O289        O  0.84795870  0.03775164  0.10514597    -0.56000
C290        C  0.84047408  0.03447956  0.19894980     0.77700
O291        O  0.83057622  0.06451598  0.12831780    -0.58400
O292        O  0.84052795  0.99517455  0.13768833    -0.56900
O293        O  0.89253219  0.06456509  0.14223121    -0.56800
O294        O  0.85660302  0.04968463  0.19247422    -0.56000
O295        O  0.49760864  0.88883561  0.39935565    -0.57200
C296        C  0.54344284  0.89704745  0.35774155     0.75400
O297        O  0.49045139  0.84670427  0.32532014    -0.58400
C298        C  0.47505221  0.89025376  0.40462454     0.75400
C299        C  0.47209507  0.91991897  0.32319507     0.77800
Cd300      Cd  0.49307896  0.88228299  0.35478807     1.37500
O301        O  0.52815273  0.90181136  0.37450349    -0.57200
O302        O  0.45843999  0.90710752  0.33675953    -0.56000
C303        C  0.49561147  0.83032757  0.34076330     0.77700
O304        O  0.49461654  0.91438402  0.32346305    -0.58400
O305        O  0.53533538  0.88571936  0.33895680    -0.56900
O306        O  0.46018695  0.88731129  0.38669111    -0.56800
O307        O  0.49678192  0.83767370  0.36286702    -0.56000
O308        O  0.77323736  0.88169948  0.37518271    -0.57200
C309        C  0.72405118  0.92311165  0.37910978     0.75400
O310        O  0.76859099  0.90901031  0.43392747    -0.58400
C311        C  0.79457674  0.87470742  0.38127091     0.75400
C312        C  0.79623658  0.96007834  0.35956006     0.77800
Cd313      Cd  0.77529057  0.92336383  0.39197651     1.37500
O314        O  0.73990347  0.91102309  0.36712747    -0.57200
O315        O  0.77353764  0.95725443  0.36282241    -0.56000
C316        C  0.77145849  0.92910514  0.44515581     0.77700
O317        O  0.81016725  0.94638305  0.37222132    -0.58400
O318        O  0.73214565  0.93593273  0.39693308    -0.56900
O319        O  0.80780919  0.89075317  0.39189068    -0.56800
O320        O  0.77851687  0.94669930  0.43195096    -0.56000
C321        C  0.60696265  0.90936598  0.38388304    -0.21900
C322        C  0.61939297  0.91702633  0.36286924     0.10100
C323        C  0.60676791  0.91844497  0.34011626     0.10500
C324        C  0.58188424  0.91189304  0.33895688    -0.16800
C325        C  0.56941223  0.90425168  0.36006281    -0.27200
C326        C  0.58209918  0.90307157  0.38286297     0.18800
C327        C  0.64620032  0.92069887  0.36492580     0.12800
C328        C  0.61943870  0.92701030  0.31718837    -0.11600
H329        H  0.57208753  0.91281738  0.32152454     0.13100
C330        C  0.57000037  0.89404390  0.40595296    -0.22400
H331        H  0.61703161  0.90767773  0.40109738     0.08700
C332        C  0.65645298  0.93981171  0.37925872     0.05000
C333        C  0.68195403  0.94035299  0.38313543    -0.19600
C334        C  0.69745150  0.92226267  0.37297189    -0.11900
C335        C  0.68700228  0.90341689  0.35811029     0.13800
C336        C  0.66152754  0.90290301  0.35445274    -0.22400
C337        C  0.64056011  0.95963518  0.39037730    -0.05400
H338        H  0.68977036  0.95490263  0.39436792     0.15300
C339        C  0.70215938  0.88317740  0.34669108    -0.15600
H340        H  0.65333451  0.88801773  0.34394683     0.09600
H341        H  0.58320785  0.89288410  0.42159000     0.07500
H342        H  0.56234702  0.87548522  0.40264475     0.08700
H343        H  0.55511382  0.90677798  0.41161549     0.07700
H344        H  0.63461275  0.91433822  0.31223159     0.02600
H345        H  0.62699047  0.94561935  0.32039906     0.03100
H346        H  0.60659589  0.92779289  0.30122160     0.06600
H347        H  0.65168446  0.97357762  0.40040769     0.05600
H348        H  0.62750275  0.95171856  0.40367264    -0.00200
H349        H  0.63009155  0.96898702  0.37557326     0.01300
H350        H  0.69060839  0.86978397  0.33638378     0.04900
H351        H  0.71215913  0.87303576  0.36128385     0.06900
H352        H  0.71536090  0.89092391  0.33341218     0.07700
C353        C  0.79939608  0.01142382  0.31262283    -0.21900
C354        C  0.81918728  0.00350667  0.29822534     0.10100
C355        C  0.83354031  0.98348189  0.30615750     0.10500
C356        C  0.82672755  0.97074771  0.32742630    -0.16800
C357        C  0.80555425  0.97726459  0.34068128    -0.27200
C358        C  0.79231612  0.99856208  0.33370736     0.18800
C359        C  0.82257141  0.01416774  0.27337188     0.12800
C360        C  0.85533969  0.97484989  0.29145815    -0.11600
H361        H  0.83709955  0.95468422  0.33277248     0.13100
C362        C  0.77062640  0.00786475  0.34822300    -0.22400
H363        H  0.78866199  0.02701302  0.30657711     0.08700
C364        C  0.80859661  0.00557937  0.25311366     0.05000
C365        C  0.81385008  0.01393508  0.22939367    -0.19600
C366        C  0.83308167  0.03048835  0.22511176    -0.11900
C367        C  0.84623879  0.04010983  0.24574983     0.13800
C368        C  0.84074017  0.03181235  0.26960415    -0.22400
C369        C  0.78872131  0.98678076  0.25641053    -0.05400
H370        H  0.80341654  0.00660520  0.21394204     0.15300
C371        C  0.86661719  0.05841322  0.24293849    -0.15600
H372        H  0.85122457  0.03846728  0.28533039     0.09600
H373        H  0.75508568  0.99487292  0.34667247     0.07500
H374        H  0.76396676  0.02577273  0.34132634     0.08700
H375        H  0.77596762  0.01036440  0.36786632     0.07700
H376        H  0.86902413  0.98979157  0.29029271     0.02600
H377        H  0.84935444  0.96947262  0.27257233     0.03100
H378        H  0.86445489  0.95881941  0.30002421     0.06600
H379        H  0.77978858  0.98170740  0.23863031     0.05600
H380        H  0.77434124  0.99416047  0.26886594    -0.00200
H381        H  0.79669296  0.96993057  0.26449218     0.01300
H382        H  0.87446600  0.06412776  0.26103787     0.04900
H383        H  0.85944569  0.07505362  0.23377027     0.06900
H384        H  0.88174922  0.05026779  0.23193705     0.07700
C385        C  0.85006593  0.86452109  0.13618524    -0.21900
C386        C  0.85656907  0.87926154  0.11643371     0.10100
C387        C  0.86372447  0.86850003  0.09391758     0.10500
C388        C  0.86536601  0.84294194  0.09202478    -0.16800
C389        C  0.85977266  0.82795325  0.11211546    -0.27200
C390        C  0.85148618  0.83897750  0.13439789     0.18800
C391        C  0.85751013  0.90592716  0.12055780     0.12800
C392        C  0.86986745  0.88403480  0.07207645    -0.11600
H393        H  0.87147679  0.83466633  0.07489090     0.13100
C394        C  0.84519033  0.82429288  0.15683438    -0.22400
H395        H  0.84454321  0.87316765  0.15336151     0.08700
C396        C  0.83646015  0.92069213  0.11816901     0.05000
C397        C  0.83815783  0.94572864  0.12353958    -0.19600
C398        C  0.86039162  0.95636790  0.13151758    -0.11900
C399        C  0.88157473  0.94128723  0.13395490     0.13800
C400        C  0.87975694  0.91625616  0.12834627    -0.22400
C401        C  0.81221121  0.90996837  0.11012923    -0.05400
H402        H  0.82185201  0.95700544  0.12160051     0.15300
C403        C  0.90604160  0.95099985  0.14277349    -0.15600
H404        H  0.89573360  0.90448985  0.13033384     0.09600
H405        H  0.83972306  0.83616842  0.17261648     0.07500
H406        H  0.86140860  0.81343680  0.16276443     0.08700
H407        H  0.82951036  0.81198123  0.15262535     0.07700
H408        H  0.88547911  0.89628467  0.07673557     0.02600
H409        H  0.85367073  0.89531230  0.06691646     0.03100
H410        H  0.87508818  0.87270162  0.05582159     0.06600
H411        H  0.79756269  0.92412519  0.10912168     0.05600
H412        H  0.80637706  0.89590515  0.12344824    -0.00200
H413        H  0.81405205  0.90137807  0.09161215     0.01300
H414        H  0.92014698  0.93631618  0.14398687     0.04900
H415        H  0.90414820  0.95926793  0.16143934     0.06900
H416        H  0.91292005  0.96480539  0.12970744     0.07700
C417        C  0.75048130  0.91691475  0.51118667    -0.21900
C418        C  0.74661593  0.94081488  0.51983340     0.10100
C419        C  0.75286087  0.96068167  0.50477420     0.10500
C420        C  0.76247367  0.95620163  0.48118975    -0.16800
C421        C  0.76518539  0.93226479  0.47177541    -0.27200
C422        C  0.75933259  0.91228795  0.48728138     0.18800
C423        C  0.73402103  0.94482210  0.54376489     0.12800
C424        C  0.74820376  0.98664896  0.51314213    -0.11600
H425        H  0.76666155  0.97160324  0.46958231     0.13100
C426        C  0.76167977  0.88600132  0.47887299    -0.22400
H427        H  0.74553697  0.90179986  0.52288832     0.08700
C428        C  0.70821973  0.94292105  0.54553668     0.05000
C429        C  0.69659028  0.94984826  0.56756451    -0.19600
C430        C  0.71007492  0.95941358  0.58754318    -0.11900
C431        C  0.73597382  0.96031350  0.58617159     0.13800
C432        C  0.74769285  0.95270637  0.56435296    -0.22400
C433        C  0.69284863  0.93488968  0.52373402    -0.05400
H434        H  0.67671600  0.94933176  0.56861682     0.15300
C435        C  0.75120281  0.96937678  0.60763646    -0.15600
H436        H  0.76750905  0.95390615  0.56294417     0.09600
H437        H  0.74844928  0.88215069  0.46368368     0.07500
H438        H  0.75753259  0.87306107  0.49390225     0.08700
H439        H  0.78073323  0.88227126  0.47267290     0.07700
H440        H  0.75894566  0.99065672  0.53015074     0.02600
H441        H  0.72834051  0.98925259  0.51695652     0.03100
H442        H  0.75359827  0.00004327  0.49895254     0.06600
H443        H  0.67293582  0.93502506  0.52805751     0.05600
H444        H  0.69803365  0.91601029  0.51808344    -0.00200
H445        H  0.69585012  0.94743143  0.50809434     0.01300
H446        H  0.77117786  0.96810261  0.60375491     0.04900
H447        H  0.74734749  0.95818536  0.62410132     0.06900
H448        H  0.74676656  0.98880995  0.61174054     0.07700
C449        C  0.68567724  0.11656000  0.62581308    -0.21900
C450        C  0.66301913  0.12782075  0.62121359     0.10100
C451        C  0.64160633  0.11351514  0.61933815     0.10500
C452        C  0.64336090  0.08811657  0.62212146    -0.16800
C453        C  0.66598222  0.07657933  0.62717597    -0.27200
C454        C  0.68750096  0.09117780  0.62911676     0.18800
C455        C  0.66205557  0.15471174  0.61867494     0.12800
C456        C  0.61680048  0.12511458  0.61503674    -0.11600
H457        H  0.62676771  0.07729328  0.62075409     0.13100
C458        C  0.71244442  0.08053044  0.63488020    -0.22400
H459        H  0.70199086  0.12783053  0.62714042     0.08700
C460        C  0.66398250  0.17044976  0.63933327     0.05000
C461        C  0.66201834  0.19577756  0.63604235    -0.19600
C462        C  0.65824184  0.20578470  0.61254932    -0.11900
C463        C  0.65647472  0.18982325  0.59180437     0.13800
C464        C  0.65854543  0.16450773  0.59520954    -0.22400
C465        C  0.66761021  0.16049930  0.66488522    -0.05400
H466        H  0.66336142  0.20781629  0.65199246     0.15300
C467        C  0.65167431  0.19900037  0.56611343    -0.15600
H468        H  0.65710947  0.15216259  0.57950748     0.09600
H469        H  0.72695729  0.09476578  0.63537934     0.07500
H470        H  0.71758207  0.06687023  0.62052332     0.08700
H471        H  0.71223816  0.07184773  0.65326625     0.07700
H472        H  0.61651051  0.13455074  0.59704872     0.02600
H473        H  0.61289846  0.13858850  0.62997271     0.03100
H474        H  0.60185552  0.11133658  0.61479647     0.06600
H475        H  0.66811234  0.17532107  0.67903767     0.05600
H476        H  0.68524935  0.15032054  0.66595409    -0.00200
H477        H  0.65228280  0.14800239  0.66936679     0.01300
H478        H  0.66717742  0.21057836  0.56010409     0.04900
H479        H  0.63427166  0.20965552  0.56568313     0.06900
H480        H  0.64985441  0.18375596  0.55253659     0.07700
C481        C  0.74048208  0.71425085  0.01877810    -0.21900
C482        C  0.75616544  0.69458133  0.02413238     0.10100
C483        C  0.74863210  0.67058951  0.01812382     0.10500
C484        C  0.72512772  0.66674207  0.00794789    -0.16800
C485        C  0.70887421  0.68631863  0.00343508    -0.27200
C486        C  0.71700894  0.71051468  0.00840745     0.18800
C487        C  0.77964913  0.69965043  0.03743753     0.12800
C488        C  0.76535831  0.64905237  0.02250922    -0.11600
H489        H  0.71920010  0.64819204  0.00402587     0.13100
C490        C  0.70083412  0.73246865  0.00395366    -0.22400
H491        H  0.74643121  0.73263987  0.02343854     0.08700
C492        C  0.79976534  0.71064037  0.02571586     0.05000
C493        C  0.82040756  0.71774041  0.03977424    -0.19600
C494        C  0.82156268  0.71402944  0.06537782    -0.11900
C495        C  0.80163122  0.70206594  0.07692010     0.13800
C496        C  0.78101687  0.69506547  0.06276058    -0.22400
C497        C  0.79938409  0.71493497  0.99836394    -0.05400
H498        H  0.83555467  0.72667350  0.03074531     0.15300
C499        C  0.80119573  0.69765719  0.10428446    -0.15600
H500        H  0.76543246  0.68667884  0.07163776     0.09600
H501        H  0.71013218  0.74981319  0.00927247     0.07500
H502        H  0.68382872  0.73111377  0.01501947     0.08700
H503        H  0.69606264  0.73353941  0.98408098     0.07700
H504        H  0.76969429  0.64758685  0.04243961     0.02600
H505        H  0.78267081  0.65145216  0.01212896     0.03100
H506        H  0.75680161  0.63159378  0.01634228     0.06600
H507        H  0.81676453  0.72326588  0.99200034     0.05600
H508        H  0.78407343  0.72746946  0.99349501    -0.00200
H509        H  0.79686730  0.69724685  0.98842873     0.01300
H510        H  0.78385864  0.68880691  0.11007002     0.04900
H511        H  0.80274914  0.71532035  0.11446045     0.06900
H512        H  0.81657304  0.68536166  0.10955847     0.07700
C513        C  0.56167267  0.73859468  0.30961675    -0.21900
C514        C  0.53672419  0.73573810  0.31490312     0.10100
C515        C  0.52625818  0.71217831  0.31374428     0.10500
C516        C  0.54121802  0.69185453  0.30789776    -0.16800
C517        C  0.56628479  0.69464080  0.30245126    -0.27200
C518        C  0.57656026  0.71849807  0.30321779     0.18800
C519        C  0.52236666  0.75790730  0.32200300     0.12800
C520        C  0.49927182  0.70860529  0.31828781    -0.11600
H521        H  0.53315293  0.67376185  0.30700617     0.13100
C522        C  0.60332149  0.72304961  0.29794945    -0.22400
H523        H  0.56953592  0.75677988  0.31053749     0.08700
C524        C  0.52122646  0.76595898  0.34672049     0.05000
C525        C  0.51071751  0.78886340  0.35229683    -0.19600
C526        C  0.50189706  0.80447186  0.33368857    -0.11900
C527        C  0.50210715  0.79574833  0.30889852     0.13800
C528        C  0.51221948  0.77254616  0.30348479    -0.22400
C529        C  0.53211452  0.75082289  0.36713105    -0.05400
H530        H  0.51061817  0.79508949  0.37130965     0.15300
C531        C  0.49249417  0.81083258  0.28783517    -0.15600
H532        H  0.51322888  0.76620024  0.28453594     0.09600
H533        H  0.61501067  0.71178288  0.31028066     0.07500
H534        H  0.60835871  0.74252296  0.30102624     0.08700
H535        H  0.60737254  0.71853330  0.27841812     0.07700
H536        H  0.48841442  0.71923302  0.30468872     0.02600
H537        H  0.49454862  0.71499967  0.33713666     0.03100
H538        H  0.49394966  0.68907215  0.31647473     0.06600
H539        H  0.52984840  0.75980936  0.38542568     0.05600
H540        H  0.55206489  0.74806162  0.36396227    -0.00200
H541        H  0.52295863  0.73274398  0.36766157     0.01300
H542        H  0.50383337  0.82750425  0.28578229     0.04900
H543        H  0.47304674  0.81597660  0.29119761     0.06900
H544        H  0.49319140  0.80061045  0.27005419     0.07700
C545        C  0.60601789  0.63603121  0.10600937    -0.21900
C546        C  0.61523530  0.65433421  0.12169029     0.10100
C547        C  0.62506432  0.67581196  0.11176594     0.10500
C548        C  0.62612121  0.67824602  0.08614991    -0.16800
C549        C  0.61749054  0.65970655  0.07011124    -0.27200
C550        C  0.60689959  0.63838909  0.08030597     0.18800
C551        C  0.61486949  0.65040884  0.14853190     0.12800
C552        C  0.63434135  0.69618135  0.12824818    -0.11600
H553        H  0.63406504  0.69469631  0.07868215     0.13100
C554        C  0.59656802  0.61793417  0.06456514    -0.22400
H555        H  0.59833978  0.61970135  0.11400425     0.08700
C556        C  0.59349672  0.65459906  0.16237531     0.05000
C557        C  0.59408474  0.65057898  0.18779838    -0.19600
C558        C  0.61561666  0.64255134  0.19980906    -0.11900
C559        C  0.63719840  0.63860483  0.18573217     0.13800
C560        C  0.63641608  0.64249669  0.16022760    -0.22400
C561        C  0.57016916  0.66353696  0.15032694    -0.05400
H562        H  0.57754614  0.65386908  0.19833774     0.15300
C563        C  0.66105473  0.63010883  0.19709305    -0.15600
H564        H  0.65272831  0.63942098  0.14925227     0.09600
H565        H  0.58171769  0.62508324  0.05247833     0.07500
H566        H  0.58856209  0.60319379  0.07587758     0.08700
H567        H  0.61133951  0.60955135  0.05325080     0.07700
H568        H  0.64965692  0.68943339  0.13997004     0.02600
H569        H  0.61923385  0.70288745  0.14021740     0.03100
H570        H  0.64120654  0.71186697  0.11747769     0.06600
H571        H  0.55521816  0.66626255  0.16391271     0.05600
H572        H  0.56381180  0.64998183  0.13633098    -0.00200
H573        H  0.57356524  0.68128339  0.14122813     0.01300
H574        H  0.65836414  0.61227582  0.20625800     0.04900
H575        H  0.66776991  0.64393231  0.21064839     0.06900
H576        H  0.67563530  0.62755870  0.18307074     0.07700
C577        C  0.50087727  0.77414064  0.93392993    -0.21900
C578        C  0.50487789  0.75392380  0.94907303     0.10100
C579        C  0.48497430  0.74380424  0.96186704     0.10500
C580        C  0.46124885  0.75325843  0.95816669    -0.16800
C581        C  0.45672773  0.77284223  0.94204903    -0.27200
C582        C  0.47711709  0.78389777  0.93036265     0.18800
C583        C  0.53008587  0.74384487  0.95209534     0.12800
C584        C  0.48877719  0.72280439  0.97927881    -0.11600
H585        H  0.44604386  0.74478170  0.96755559     0.13100
C586        C  0.47422850  0.80583629  0.91404880    -0.22400
H587        H  0.51643134  0.78216216  0.92469178     0.08700
C588        C  0.53896734  0.72461510  0.93700807     0.05000
C589        C  0.56135265  0.71314378  0.94309153    -0.19600
C590        C  0.57477412  0.72010842  0.96426673    -0.11900
C591        C  0.56649201  0.74051682  0.97839954     0.13800
C592        C  0.54435485  0.75215570  0.97197754    -0.22400
C593        C  0.52436375  0.71566420  0.91505555    -0.05400
H594        H  0.56762064  0.69773768  0.93205160     0.15300
C595        C  0.58058912  0.75014201  0.00044314    -0.15600
H596        H  0.53747858  0.76713246  0.98326046     0.09600
H597        H  0.46298083  0.80102882  0.89758702     0.07500
H598        H  0.49222913  0.81252687  0.90742061     0.08700
H599        H  0.46538345  0.82101460  0.92450460     0.07700
H600        H  0.50158320  0.72836073  0.99431812     0.02600
H601        H  0.49664581  0.70686701  0.96919810     0.03100
H602        H  0.47128164  0.71698350  0.98778937     0.06600
H603        H  0.53387600  0.70047500  0.90521681     0.05600
H604        H  0.52160207  0.73086825  0.90192535    -0.00200
H605        H  0.50618413  0.70893646  0.92110578     0.01300
H606        H  0.57246261  0.76739298  0.00775605     0.04900
H607        H  0.59984896  0.75401271  0.99518206     0.06900
H608        H  0.58025903  0.73668758  0.01557397     0.07700
C609        C  0.34269324  0.61467514  0.90018683    -0.21900
C610        C  0.36508258  0.62573382  0.90633054     0.10100
C611        C  0.38624699  0.61125791  0.90986954     0.10500
C612        C  0.38477932  0.58590476  0.90612340    -0.16800
C613        C  0.36259940  0.57477910  0.89894871    -0.27200
C614        C  0.34109899  0.58928449  0.89658398     0.18800
C615        C  0.36608979  0.65261622  0.90857384     0.12800
C616        C  0.41034765  0.62263207  0.91746843    -0.11600
H617        H  0.40116324  0.57479456  0.90828242     0.13100
C618        C  0.31632665  0.57816131  0.89106487    -0.22400
H619        H  0.32647372  0.62603208  0.89800759     0.08700
C620        C  0.37184932  0.66716292  0.88819396     0.05000
C621        C  0.37329374  0.69256661  0.89128690    -0.19600
C622        C  0.36912888  0.70383581  0.91432211    -0.11900
C623        C  0.36332489  0.68903832  0.93479810     0.13800
C624        C  0.36175297  0.66358020  0.93154092    -0.22400
C625        C  0.37657156  0.65584638  0.86321713    -0.05400
H626        H  0.37776265  0.70365781  0.87554188     0.15300
C627        C  0.35950294  0.69958563  0.96026323    -0.15600
H628        H  0.35748010  0.65206802  0.94703593     0.09600
H629        H  0.30141850  0.59207164  0.89175165     0.07500
H630        H  0.31214976  0.56397239  0.90489786     0.08700
H631        H  0.31612030  0.56989260  0.87231773     0.07700
H632        H  0.40821314  0.63229748  0.93542608     0.02600
H633        H  0.41627016  0.63592205  0.90341349     0.03100
H634        H  0.42506970  0.60867478  0.91952054     0.06600
H635        H  0.38091171  0.66987624  0.84927621     0.05600
H636        H  0.36003721  0.64571249  0.85682897    -0.00200
H637        H  0.39235479  0.64299036  0.86430344     0.01300
H638        H  0.34330467  0.71196471  0.96029699     0.04900
H639        H  0.37614772  0.70975850  0.96630520     0.06900
H640        H  0.35607673  0.68510530  0.97400081     0.07700
C641        C  0.02261143  0.81496334  0.06487547    -0.21900
C642        C  0.02659533  0.79205302  0.07544259     0.10100
C643        C  0.05088529  0.78373859  0.07923270     0.10500
C644        C  0.07071118  0.79845077  0.07189230    -0.16800
C645        C  0.06675456  0.82123804  0.06067492    -0.27200
C646        C  0.04224147  0.82974135  0.05759834     0.18800
C647        C  0.00472440  0.77809138  0.08353370     0.12800
C648        C  0.05579494  0.75933789  0.09087873    -0.11600
H649        H  0.08935150  0.79188773  0.07446123     0.13100
C650        C  0.03642691  0.85471307  0.04747766    -0.22400
H651        H  0.00388902  0.82141575  0.06254299     0.08700
C652        C  0.99396498  0.78293273  0.10659351     0.05000
C653        C  0.97107115  0.77269955  0.11208516    -0.19600
C654        C  0.95801861  0.75822799  0.09480276    -0.11900
C655        C  0.96957129  0.75227220  0.07209725     0.13800
C656        C  0.99280805  0.76226954  0.06683375    -0.22400
C657        C  0.00615794  0.79985790  0.12502844    -0.05400
H658        H  0.96278205  0.77719816  0.12964121     0.15300
C659        C  0.95740703  0.73617255  0.05293912    -0.15600
H660        H  0.00123185  0.75866285  0.04913087     0.09600
H661        H  0.01648043  0.85895373  0.04840031     0.07500
H662        H  0.04176435  0.85564999  0.02783390     0.08700
H663        H  0.04631315  0.86895341  0.05837075     0.07700
H664        H  0.04737708  0.74459369  0.07944748     0.02600
H665        H  0.04776146  0.75897572  0.10960182     0.03100
H666        H  0.07579053  0.75554695  0.09256631     0.06600
H667        H  0.99530056  0.80174606  0.14219081     0.05600
H668        H  0.00816825  0.81833102  0.11701533    -0.00200
H669        H  0.02459357  0.79266301  0.13001610     0.01300
H670        H  0.94026353  0.74494268  0.04617755     0.04900
H671        H  0.95318656  0.71808808  0.06096347     0.06900
H672        H  0.96943275  0.73299944  0.03675984     0.07700
C673        C  0.24751730  0.85891042  0.00820268    -0.21900
C674        C  0.25304351  0.83476144  0.00132262     0.10100
C675        C  0.23557154  0.81628445  0.00532975     0.10500
C676        C  0.21266874  0.82244938  0.01548689    -0.16800
C677        C  0.20644266  0.84680688  0.02151448    -0.27200
C678        C  0.22444473  0.86528984  0.01805884     0.18800
C679        C  0.27630124  0.82942533  0.98799222     0.12800
C680        C  0.24088137  0.79008542  0.99823420    -0.11600
H681        H  0.19922081  0.80813538  0.01788699     0.13100
C682        C  0.21949908  0.89189443  0.02379175    -0.22400
H683        H  0.26104400  0.87298087  0.00494036     0.08700
C684        C  0.27719116  0.83033636  0.96205367     0.05000
C685        C  0.29883539  0.82343014  0.94985422    -0.19600
C686        C  0.31977524  0.81551759  0.96286492    -0.11900
C687        C  0.31899450  0.81502185  0.98896951     0.13800
C688        C  0.29727450  0.82211735  0.00119835    -0.22400
C689        C  0.25505543  0.83808789  0.94719994    -0.05400
H690        H  0.29924480  0.82377512  0.92989055     0.15300
C691        C  0.34040128  0.80577628  0.00396850    -0.15600
H692        H  0.29637543  0.82128863  0.02110154     0.09600
H693        H  0.23583059  0.90346029  0.02035261     0.07500
H694        H  0.21460064  0.89417517  0.04350182     0.08700
H695        H  0.20437094  0.89876669  0.01189319     0.07700
H696        H  0.25722586  0.78347695  0.00856812     0.02600
H697        H  0.24454212  0.78866811  0.97817956     0.03100
H698        H  0.22521074  0.77789895  0.00242045     0.06600
H699        H  0.25880421  0.83770993  0.92711319     0.05600
H700        H  0.24965565  0.85701398  0.95249051    -0.00200
H701        H  0.23946724  0.82559043  0.95068477     0.01300
H702        H  0.33622964  0.80570102  0.02396853     0.04900
H703        H  0.35658508  0.81770895  0.00128049     0.06900
H704        H  0.34497147  0.78674595  0.99823339     0.07700
C705        C  0.10106948  0.85671500  0.85980028    -0.21900
C706        C  0.11960165  0.86830356  0.87345566     0.10100
C707        C  0.13759795  0.88211822  0.86144251     0.10500
C708        C  0.13626628  0.88459443  0.83581150    -0.16800
C709        C  0.11730158  0.87356820  0.82193428    -0.27200
C710        C  0.09960705  0.85912220  0.83415078     0.18800
C711        C  0.11928438  0.86648324  0.90049946     0.12800
C712        C  0.15797144  0.89446130  0.87576336    -0.11600
H713        H  0.14993258  0.89554964  0.82664544     0.13100
C714        C  0.07932204  0.84587382  0.82051820    -0.22400
H715        H  0.08747791  0.84599417  0.86939107     0.08700
C716        C  0.10490213  0.88257016  0.91487770     0.05000
C717        C  0.10555140  0.88061961  0.94056644    -0.19600
C718        C  0.12042819  0.86306627  0.95212808    -0.11900
C719        C  0.13514408  0.84715410  0.93758437     0.13800
C720        C  0.13412441  0.84892338  0.91186073    -0.22400
C721        C  0.08930686  0.90208637  0.90307831    -0.05400
H722        H  0.09456138  0.89301515  0.95168379     0.15300
C723        C  0.15291208  0.82919545  0.94891742    -0.15600
H724        H  0.14533215  0.83693252  0.90051075     0.09600
H725        H  0.06665000  0.85924999  0.81185928     0.07500
H726        H  0.06821010  0.83446184  0.83302451     0.08700
H727        H  0.08727487  0.83356278  0.80622975     0.07700
H728        H  0.16908918  0.88052279  0.88558560     0.02600
H729        H  0.15008623  0.90750013  0.88942067     0.03100
H730        H  0.17040657  0.90477626  0.86354846     0.06600
H731        H  0.07943186  0.91333431  0.91702560     0.05600
H732        H  0.07544642  0.89350356  0.89066408    -0.00200
H733        H  0.10109613  0.91444277  0.89221885     0.01300
H734        H  0.16395404  0.81947118  0.93471417     0.04900
H735        H  0.14275656  0.81516622  0.95933166     0.06900
H736        H  0.16587743  0.83899883  0.96142901     0.07700
C737        C  0.01681157  0.74982470  0.70749021    -0.21900
C738        C  0.02979710  0.76202596  0.68912508     0.10100
C739        C  0.03055263  0.75197987  0.66515183     0.10500
C740        C  0.01913286  0.72945108  0.66028753    -0.16800
C741        C  0.00730090  0.71625805  0.67893166    -0.27200
C742        C  0.00554779  0.72705650  0.70277544     0.18800
C743        C  0.04432364  0.78408784  0.69591457     0.12800
C744        C  0.04404325  0.76471952  0.64485593    -0.11600
H745        H  0.02041181  0.72162617  0.64191393     0.13100
C746        C  0.99284619  0.71444691  0.72364641    -0.22400
H747        H  0.01632138  0.75775585  0.72587141     0.08700
C748        C  0.03390986  0.80773762  0.69648695     0.05000
C749        C  0.04850495  0.82781525  0.70379203    -0.19600
C750        C  0.07320374  0.82466110  0.71094479    -0.11900
C751        C  0.08373283  0.80087873  0.70960665     0.13800
C752        C  0.06914369  0.78100058  0.70206264    -0.22400
C753        C  0.00736844  0.81164679  0.68959475    -0.05400
H754        H  0.04036836  0.84591427  0.70465804     0.15300
C755        C  0.11042524  0.79618577  0.71565294    -0.15600
H756        H  0.07704789  0.76278598  0.70122928     0.09600
H757        H  0.99324660  0.72565498  0.74083904     0.07500
H758        H  0.00213547  0.69680582  0.72761565     0.08700
H759        H  0.97330042  0.71117901  0.71870230     0.07700
H760        H  0.06377853  0.76649703  0.64981837     0.02600
H761        H  0.03608547  0.78321196  0.64208087     0.03100
H762        H  0.04274916  0.75446556  0.62711894     0.06600
H763        H  0.00204533  0.83123761  0.69096277     0.05600
H764        H  0.99544087  0.80112283  0.70212177    -0.00200
H765        H  0.00411617  0.80533228  0.67034345     0.01300
H766        H  0.11395951  0.79953291  0.73555264     0.04900
H767        H  0.12224943  0.80823687  0.70447980     0.06900
H768        H  0.11581012  0.77695182  0.71160597     0.07700
C769        C  0.31278211  0.50933392  0.77326242    -0.21900
C770        C  0.33084729  0.52033870  0.75888687     0.10100
C771        C  0.35565424  0.51886666  0.76631377     0.10500
C772        C  0.36164780  0.50814082  0.78893477    -0.16800
C773        C  0.34339324  0.49912276  0.80466064    -0.27200
C774        C  0.31867582  0.49860502  0.79601751     0.18800
C775        C  0.32326669  0.53552785  0.73761152     0.12800
C776        C  0.37577804  0.52917829  0.75061934    -0.11600
H777        H  0.38066669  0.50814634  0.79493587     0.13100
C778        C  0.29820613  0.48755446  0.81072631    -0.22400
H779        H  0.29377438  0.51025853  0.76720893     0.08700
C780        C  0.31537631  0.52521904  0.71501061     0.05000
C781        C  0.30865169  0.54073261  0.69557249    -0.19600
C782        C  0.30914590  0.56635894  0.69838299    -0.11900
C783        C  0.31723156  0.57659781  0.72114527     0.13800
C784        C  0.32415770  0.56102060  0.74037850    -0.22400
C785        C  0.31408841  0.49790789  0.71142818    -0.05400
H786        H  0.30232174  0.53277153  0.67831788     0.15300
C787        C  0.31913884  0.60384491  0.72533267    -0.15600
H788        H  0.33024291  0.56875158  0.75783846     0.09600
H789        H  0.28057938  0.48741549  0.80028659     0.07500
H790        H  0.29515591  0.49833992  0.82786845     0.08700
H791        H  0.30284027  0.46832218  0.81526494     0.07700
H792        H  0.37332480  0.54921405  0.74864451     0.02600
H793        H  0.37526049  0.52035679  0.73210160     0.03100
H794        H  0.39423704  0.52593031  0.75881186     0.06600
H795        H  0.30794729  0.49285500  0.69249992     0.05600
H796        H  0.30085976  0.49004079  0.72460860    -0.00200
H797        H  0.33251059  0.48970689  0.71460481     0.01300
H798        H  0.30060494  0.61233516  0.72495059     0.04900
H799        H  0.33083343  0.61201171  0.71092516     0.06900
H800        H  0.32751133  0.60834779  0.74353593     0.07700
C801        C  0.16108240  0.63664488  0.66314437    -0.21900
C802        C  0.15129352  0.61887998  0.67858709     0.10100
C803        C  0.16665410  0.60048396  0.68826901     0.10500
C804        C  0.19150089  0.59991427  0.68163284    -0.16800
C805        C  0.20128747  0.61746820  0.66576901    -0.27200
C806        C  0.18590396  0.63633216  0.65667340     0.18800
C807        C  0.12438667  0.61854359  0.68164181     0.12800
C808        C  0.15686237  0.58157545  0.70558571    -0.11600
H809        H  0.20330788  0.58556781  0.68871819     0.13100
C810        C  0.19500834  0.65549828  0.63918681    -0.22400
H811        H  0.14894517  0.65041202  0.65545324     0.08700
C812        C  0.11186037  0.63735602  0.69438421     0.05000
C813        C  0.08618912  0.63872502  0.69252342    -0.19600
C814        C  0.07288972  0.62192629  0.67789973    -0.11900
C815        C  0.08546213  0.60214888  0.66648017     0.13800
C816        C  0.11107509  0.60079689  0.66850328    -0.22400
C817        C  0.12558966  0.65612410  0.70960116    -0.05400
H818        H  0.07661005  0.65368254  0.70160072     0.15300
C819        C  0.07223235  0.58242306  0.65205143    -0.15600
H820        H  0.12094428  0.58644537  0.65873594     0.09600
H821        H  0.18001665  0.66792760  0.63310670     0.07500
H822        H  0.20280102  0.64658204  0.62249069     0.08700
H823        H  0.20919025  0.66696279  0.64841652     0.07700
H824        H  0.14248278  0.57044738  0.69626377     0.02600
H825        H  0.14886606  0.59080690  0.72200725     0.03100
H826        H  0.17155613  0.56894680  0.71196287     0.06600
H827        H  0.11288352  0.66916043  0.71888343     0.05600
H828        H  0.13799321  0.66684673  0.69775819    -0.00200
H829        H  0.13663696  0.64679381  0.72399737     0.01300
H830        H  0.08489993  0.56748854  0.64626700     0.04900
H831        H  0.06397239  0.59009619  0.63506461     0.06900
H832        H  0.05771437  0.57424010  0.66359343     0.07700
C833        C  0.96753706  0.50085762  0.75732916    -0.21900
C834        C  0.94731303  0.51455392  0.74914140     0.10100
C835        C  0.92344660  0.50539430  0.75257677     0.10500
C836        C  0.92037663  0.48212791  0.76287173    -0.16800
C837        C  0.94063655  0.46754365  0.76985764    -0.27200
C838        C  0.96459180  0.47754973  0.76772897     0.18800
C839        C  0.95172349  0.53703973  0.73460892     0.12800
C840        C  0.90122498  0.51997956  0.74483691    -0.11600
H841        H  0.90195150  0.47498886  0.76464187     0.13100
C842        C  0.98727399  0.46371849  0.77556470    -0.22400
H843        H  0.98583037  0.50811891  0.75470251     0.08700
C844        C  0.95494263  0.56026544  0.74572986     0.05000
C845        C  0.96043020  0.58054526  0.73092861    -0.19600
C846        C  0.96336191  0.57799045  0.70527989    -0.11900
C847        C  0.95927486  0.55469860  0.69415966     0.13800
C848        C  0.95341458  0.53466220  0.70897346    -0.22400
C849        C  0.95309437  0.56346938  0.77322608    -0.05400
H850        H  0.96350641  0.59823927  0.73957648     0.15300
C851        C  0.96078808  0.55067482  0.66667043    -0.15600
H852        H  0.95064274  0.51679758  0.70056459     0.09600
H853        H  0.00420723  0.47467770  0.77310858     0.07500
H854        H  0.98926301  0.44677905  0.76428934     0.08700
H855        H  0.98603481  0.45908833  0.79537871     0.07700
H856        H  0.90184667  0.52346792  0.72474780     0.02600
H857        H  0.90090907  0.53772920  0.75495446     0.03100
H858        H  0.88386726  0.51021297  0.74880402     0.06600
H859        H  0.95612697  0.58277379  0.77902305     0.05600
H860        H  0.96713855  0.55192666  0.78246591    -0.00200
H861        H  0.93457057  0.55793471  0.77944412     0.01300
H862        H  0.97996297  0.55299944  0.66035978     0.04900
H863        H  0.94850470  0.56379563  0.65707692     0.06900
H864        H  0.95502901  0.53190339  0.66120232     0.07700
C865        C  0.77902372  0.35735416  0.52346028    -0.21900
C866        C  0.77176877  0.33305233  0.51974525     0.10100
C867        C  0.78651482  0.31729236  0.50530382     0.10500
C868        C  0.80939565  0.32554479  0.49691498    -0.16800
C869        C  0.81786042  0.34923239  0.50263696    -0.27200
C870        C  0.80179994  0.36575280  0.51501635     0.18800
C871        C  0.75000577  0.32404835  0.53326844     0.12800
C872        C  0.77825158  0.29167439  0.49912559    -0.11600
H873        H  0.82123561  0.31296518  0.48692929     0.13100
C874        C  0.80838074  0.39220223  0.51961774    -0.22400
H875        H  0.76726058  0.36950571  0.53404397     0.08700
C876        C  0.75280104  0.31257343  0.55626457     0.05000
C877        C  0.73187575  0.30551258  0.56931269    -0.19600
C878        C  0.70796727  0.30996587  0.56029044    -0.11900
C879        C  0.70526325  0.32125256  0.53695537     0.13800
C880        C  0.72634957  0.32822301  0.52384335    -0.22400
C881        C  0.77790677  0.30839889  0.56743294    -0.05400
H882        H  0.73431590  0.29683248  0.58701630     0.15300
C883        C  0.68041538  0.32573576  0.52546194    -0.15600
H884        H  0.72441632  0.33712567  0.50619056     0.09600
H885        H  0.82367110  0.39364191  0.53315281     0.07500
H886        H  0.79266713  0.40273973  0.52730685     0.08700
H887        H  0.81366695  0.40087156  0.50203490     0.07700
H888        H  0.76056136  0.29239333  0.48885563     0.02600
H889        H  0.77565612  0.28105311  0.51618714     0.03100
H890        H  0.79185506  0.28181846  0.48749131     0.06600
H891        H  0.77680111  0.29940092  0.58563176     0.05600
H892        H  0.78738952  0.32618672  0.57008054    -0.00200
H893        H  0.78910540  0.29652257  0.55517424     0.01300
H894        H  0.68192820  0.33391451  0.50689526     0.04900
H895        H  0.66968574  0.33863328  0.53711738     0.06900
H896        H  0.67040622  0.30816512  0.52338075     0.07700
C897        C  0.93979617  0.38706829  0.60708387    -0.21900
C898        C  0.93171712  0.36800506  0.62197759     0.10100
C899        C  0.92169138  0.34675945  0.61112319     0.10500
C900        C  0.91831181  0.34572271  0.58557097    -0.16800
C901        C  0.92463583  0.36550231  0.57057317    -0.27200
C902        C  0.93654448  0.38607642  0.58139020     0.18800
C903        C  0.93130133  0.37164549  0.64893511     0.12800
C904        C  0.91399311  0.32544200  0.62661694    -0.11600
H905        H  0.90982804  0.32965077  0.57738066     0.13100
C906        C  0.94488630  0.40749091  0.56637094    -0.22400
H907        H  0.94771390  0.40320489  0.61573597     0.08700
C908        C  0.95208259  0.36734589  0.66383372     0.05000
C909        C  0.95026008  0.37069803  0.68940637    -0.19600
C910        C  0.92792868  0.37764258  0.70040559    -0.11900
C911        C  0.90695597  0.38153296  0.68528651     0.13800
C912        C  0.90908487  0.37877903  0.65970832    -0.22400
C913        C  0.97594266  0.35881221  0.65276230    -0.05400
H914        H  0.96628531  0.36748306  0.70089841     0.15300
C915        C  0.88237083  0.38892947  0.69568733    -0.15600
H916        H  0.89321134  0.38185624  0.64794587     0.09600
H917        H  0.95870047  0.40128915  0.55268768     0.07500
H918        H  0.95358801  0.42189373  0.57805374     0.08700
H919        H  0.92893585  0.41589924  0.55678102     0.07700
H920        H  0.89930646  0.33120497  0.63953744     0.02600
H921        H  0.93001257  0.31862460  0.63732383     0.03100
H922        H  0.90682108  0.31008245  0.61513659     0.06600
H923        H  0.99033730  0.35602542  0.66706953     0.05600
H924        H  0.98268553  0.37261636  0.63960958    -0.00200
H925        H  0.97309381  0.34116687  0.64284550     0.01300
H926        H  0.88422292  0.40614430  0.70657133     0.04900
H927        H  0.87521006  0.37417688  0.70751303     0.06900
H928        H  0.86851232  0.39213229  0.68094380     0.07700
C929        C  0.10202563  0.00610079  0.75609418    -0.21900
C930        C  0.08138568  0.00943893  0.77102406     0.10100
C931        C  0.06568916  0.98954747  0.77538300     0.10500
C932        C  0.07148337  0.96646935  0.76548718    -0.16800
C933        C  0.09286423  0.96252839  0.75151316    -0.27200
C934        C  0.10807667  0.98290519  0.74629418     0.18800
C935        C  0.07696363  0.03352581  0.78307544     0.12800
C936        C  0.04315421  0.99254615  0.79112800    -0.11600
H937        H  0.05961847  0.95120511  0.76959676     0.13100
C938        C  0.13085181  0.98056043  0.73080873    -0.22400
H939        H  0.11382997  0.02161316  0.75271927     0.08700
C940        C  0.08744348  0.03927536  0.80622117     0.05000
C941        C  0.08026821  0.06082245  0.81855687    -0.19600
C942        C  0.06273072  0.07688469  0.80837798    -0.11900
C943        C  0.05310481  0.07148260  0.78448911     0.13800
C944        C  0.06042054  0.04988171  0.77222518    -0.22400
C945        C  0.10572231  0.02228997  0.81816998    -0.05400
H946        H  0.08795353  0.06472175  0.83664227     0.15300
C947        C  0.03464380  0.08778826  0.77186631    -0.15600
H948        H  0.05255123  0.04523848  0.75438920     0.09600
H949        H  0.13961779  0.99858134  0.72775679     0.07500
H950        H  0.12604797  0.97264301  0.71248490     0.08700
H951        H  0.14460934  0.96880800  0.74018144     0.07700
H952        H  0.03055841  0.00618261  0.78275523     0.02600
H953        H  0.04853934  0.99890781  0.80988808     0.03100
H954        H  0.03298007  0.97509288  0.79293116     0.06600
H955        H  0.11205008  0.02939598  0.83637226     0.05600
H956        H  0.12203332  0.02011169  0.80616944    -0.00200
H957        H  0.09722699  0.00411215  0.82098235     0.01300
H958        H  0.02966329  0.08079378  0.75320682     0.04900
H959        H  0.04244741  0.10636264  0.76967588     0.06900
H960        H  0.01748557  0.08877492  0.78276545     0.07700
C961        C  0.99355412  0.28958664  0.79640549    -0.21900
C962        C  0.99631990  0.28529137  0.82160945     0.10100
C963        C  0.98962044  0.30375014  0.83871439     0.10500
C964        C  0.97829448  0.32530612  0.83019734    -0.16800
C965        C  0.97371502  0.32886360  0.80494194    -0.27200
C966        C  0.98249784  0.31110145  0.78777348     0.18800
C967        C  0.00400481  0.26039573  0.82931749     0.12800
C968        C  0.99452592  0.30072549  0.86586273    -0.11600
H969        H  0.97224322  0.33902225  0.84339671     0.13100
C970        C  0.98046164  0.31447820  0.76027712    -0.22400
H971        H  0.99923507  0.27549781  0.78339834     0.08700
C972        C  0.98632064  0.24291134  0.83589538     0.05000
C973        C  0.99383545  0.21899966  0.84119731    -0.19600
C974        C  0.01856889  0.21153236  0.83934386    -0.11900
C975        C  0.03626145  0.22904198  0.83209711     0.13800
C976        C  0.02871306  0.25327512  0.82733654    -0.22400
C977        C  0.95927397  0.24909682  0.83621326    -0.05400
H978        H  0.97996288  0.20586528  0.84633127     0.15300
C979        C  0.06295689  0.22247816  0.82899967    -0.15600
H980        H  0.04206359  0.26667961  0.82156004     0.09600
H981        H  0.96095594  0.31374321  0.75429157     0.07500
H982        H  0.99035063  0.29985111  0.74995997     0.08700
H983        H  0.98865307  0.33225779  0.75511548     0.07700
H984        H  0.01455147  0.29829350  0.86902251     0.02600
H985        H  0.98481078  0.28450175  0.87293877     0.03100
H986        H  0.98835938  0.31696284  0.87666269     0.06600
H987        H  0.94791324  0.23306124  0.84113372     0.05600
H988        H  0.95332854  0.25528031  0.81769037    -0.00200
H989        H  0.95549879  0.26382693  0.84985437     0.01300
H990        H  0.07400594  0.23844688  0.82323785     0.04900
H991        H  0.06488856  0.20805224  0.81458309     0.06900
H992        H  0.07066376  0.21590010  0.84672050     0.07700
C993        C  0.71216136  0.06104892  0.78740533    -0.21900
C994        C  0.70205784  0.03784641  0.79062528     0.10100
C995        C  0.69973036  0.02850951  0.81461756     0.10500
C996        C  0.70792510  0.04263969  0.83493365    -0.16800
C997        C  0.71854469  0.06583006  0.83174327    -0.27200
C998        C  0.72030542  0.07523956  0.80750501     0.18800
C999        C  0.69370232  0.02432746  0.76822774     0.12800
C1000       C  0.68887373  0.00360778  0.81868488    -0.11600
H1001       H  0.70646252  0.03531789  0.85335288     0.13100
C1002       C  0.73002904  0.10049386  0.80244232    -0.22400
H1003       H  0.71355643  0.06814517  0.76889332     0.08700
C1004       C  0.66994885  0.02794274  0.75845215     0.05000
C1005       C  0.66411101  0.01845158  0.73500472    -0.19600
C1006       C  0.68168742  0.00602225  0.72053760    -0.11900
C1007       C  0.70535893  0.00169445  0.73086359     0.13800
C1008       C  0.71092360  0.01078059  0.75463513    -0.22400
C1009       C  0.65111330  0.04289379  0.77226034    -0.05400
H1010       H  0.64595890  0.02186772  0.72749913     0.15300
C1011       C  0.72528993  0.98853560  0.71679810    -0.15600
H1012       H  0.72923753  0.00839189  0.76220981     0.09600
H1013       H  0.72811683  0.10532738  0.78269675     0.07500
H1014       H  0.74986912  0.10148939  0.80712328     0.08700
H1015       H  0.71962036  0.11430974  0.81333899     0.07700
H1016       H  0.69999406  0.98952854  0.80891854     0.02600
H1017       H  0.66975575  0.00301369  0.81150776     0.03100
H1018       H  0.68849004  0.99897326  0.83854844     0.06600
H1019       H  0.63349643  0.04417760  0.76191137     0.05600
H1020       H  0.65807102  0.06174507  0.77539512    -0.00200
H1021       H  0.64731315  0.03442720  0.79030117     0.01300
H1022       H  0.73001514  0.99893608  0.70004423     0.04900
H1023       H  0.71904981  0.96986207  0.71159206     0.06900
H1024       H  0.74236558  0.98661918  0.72794003     0.07700
C1025       C  0.76287390  0.06885973  0.00945221    -0.21900
C1026       C  0.77829395  0.08639030  0.02050775     0.10100
C1027       C  0.78168961  0.10901595  0.00889613     0.10500
C1028       C  0.77091869  0.11301885  0.98572831    -0.16800
C1029       C  0.75708721  0.09476727  0.97350956    -0.27200
C1030       C  0.75207802  0.07277646  0.98613711     0.18800
C1031       C  0.79240979  0.07991740  0.04307847     0.12800
C1032       C  0.79727463  0.12870015  0.02066777    -0.11600
H1033       H  0.77454138  0.13011611  0.97656464     0.13100
C1034       C  0.73542715  0.05341322  0.97537230    -0.22400
H1035       H  0.75998039  0.05168067  0.01876000     0.08700
C1036       C  0.78240399  0.08225584  0.06688029     0.05000
C1037       C  0.79649050  0.07508538  0.08746450    -0.19600
C1038       C  0.82026696  0.06528199  0.08473209    -0.11900
C1039       C  0.83053139  0.06382424  0.06077373     0.13800
C1040       C  0.81646513  0.07120146  0.04035511    -0.22400
C1041       C  0.75683753  0.09217945  0.07043828    -0.05400
H1042       H  0.78858751  0.07645094  0.10571523     0.15300
C1043       C  0.85643228  0.05494484  0.05647041    -0.15600
H1044       H  0.82415510  0.06987482  0.02200387     0.09600
H1045       H  0.73223151  0.03840650  0.98858892     0.07500
H1046       H  0.74375638  0.04513763  0.95865328     0.08700
H1047       H  0.71731877  0.06161611  0.97068557     0.07700
H1048       H  0.81638600  0.12196859  0.02311219     0.02600
H1049       H  0.78964497  0.13381736  0.03892819     0.03100
H1050       H  0.79784999  0.14542137  0.00925513     0.06600
H1051       H  0.75178288  0.09299638  0.09021605     0.05600
H1052       H  0.74339612  0.08027249  0.06064004    -0.00200
H1053       H  0.75558563  0.11095775  0.06294957     0.01300
H1054       H  0.85790408  0.03517207  0.06062137     0.04900
H1055       H  0.86943960  0.06548273  0.06828948     0.06900
H1056       H  0.86206766  0.05731251  0.03701549     0.07700
C1057       C  0.92085096  0.09703491  0.88910393    -0.21900
C1058       C  0.90640828  0.09522475  0.86774141     0.10100
C1059       C  0.91764555  0.09618670  0.84446598     0.10500
C1060       C  0.94294451  0.10064555  0.84309407    -0.16800
C1061       C  0.95732652  0.10418177  0.86446591    -0.27200
C1062       C  0.94620539  0.10133352  0.88787428     0.18800
C1063       C  0.87937242  0.09577312  0.87033298     0.12800
C1064       C  0.90288787  0.09279877  0.82109272    -0.11600
H1065       H  0.95135149  0.10215998  0.82513955     0.13100
C1066       C  0.96039665  0.10376629  0.91174292    -0.22400
H1067       H  0.91196951  0.09626172  0.90689400     0.08700
C1068       C  0.86605795  0.07592860  0.87969938     0.05000
C1069       C  0.84073925  0.07861703  0.88381711    -0.19600
C1070       C  0.82839090  0.10067544  0.87862754    -0.11900
C1071       C  0.84182523  0.12023197  0.86825025     0.13800
C1072       C  0.86713165  0.11753028  0.86459411    -0.22400
C1073       C  0.87849490  0.05189570  0.88503626    -0.05400
H1074       H  0.83063220  0.06343998  0.89136440     0.15300
C1075       C  0.82994488  0.14398191  0.86063445    -0.15600
H1076       H  0.87762973  0.13266646  0.85743522     0.09600
H1077       H  0.97529960  0.08986535  0.91233485     0.07500
H1078       H  0.94854853  0.10081787  0.92801460     0.08700
H1079       H  0.96824670  0.12241769  0.91352932     0.07700
H1080       H  0.88894376  0.10753154  0.81938356     0.02600
H1081       H  0.89349517  0.07481070  0.82135072     0.03100
H1082       H  0.91469681  0.09330208  0.80450514     0.06600
H1083       H  0.86525840  0.03805888  0.89163955     0.05600
H1084       H  0.89281267  0.05443121  0.89947069    -0.00200
H1085       H  0.88716811  0.04464650  0.86798727     0.01300
H1086       H  0.82252704  0.15375280  0.87700586     0.04900
H1087       H  0.81501602  0.14029755  0.84706203     0.06900
H1088       H  0.84323756  0.15644575  0.85179093     0.07700
C1089       C  0.43919051  0.97840980  0.30348418    -0.21900
C1090       C  0.45250871  0.98450517  0.28239036     0.10100
C1091       C  0.47052962  0.96812019  0.27347924     0.10500
C1092       C  0.47566020  0.94660903  0.28655298    -0.16800
C1093       C  0.46302998  0.94086027  0.30827140    -0.27200
C1094       C  0.44410699  0.95677096  0.31648864     0.18800
C1095       C  0.44860915  0.00902120  0.27124997     0.12800
C1096       C  0.48441267  0.97341117  0.25024181    -0.11600
H1097       H  0.49002226  0.93443630  0.28003959     0.13100
C1098       C  0.42991438  0.95181298  0.33962436    -0.22400
H1099       H  0.42540134  0.99111011  0.31026495     0.08700
C1100       C  0.42743217  0.01469108  0.25732592     0.05000
C1101       C  0.42362377  0.03883154  0.24933038    -0.19600
C1102       C  0.44039821  0.05768920  0.25507274    -0.11900
C1103       C  0.46228756  0.05152566  0.26813004     0.13800
C1104       C  0.46599297  0.02733858  0.27597792    -0.22400
C1105       C  0.40879985  0.99526732  0.25104165    -0.05400
H1106       H  0.40696027  0.04309472  0.23918723     0.15300
C1107       C  0.48173195  0.07016838  0.27450863    -0.15600
H1108       H  0.48228131  0.02277332  0.28658417     0.09600
H1109       H  0.41640365  0.96656049  0.34368370     0.07500
H1110       H  0.44270614  0.95056506  0.35558949     0.08700
H1111       H  0.41960366  0.93443285  0.33749972     0.07700
H1112       H  0.49509192  0.99054258  0.25252657     0.02600
H1113       H  0.47126763  0.97545588  0.23465845     0.03100
H1114       H  0.49745715  0.95844571  0.24550702     0.06600
H1115       H  0.39351354  0.00259218  0.23961463     0.05600
H1116       H  0.40083826  0.98784849  0.26816074    -0.00200
H1117       H  0.41778667  0.98019858  0.24055111     0.01300
H1118       H  0.47414583  0.08427441  0.28722413     0.04900
H1119       H  0.48847588  0.07883049  0.25744658     0.06900
H1120       H  0.49780785  0.06175213  0.28390634     0.07700
C1121       C  0.48056092  0.26176895  0.55360942    -0.21900
C1122       C  0.49555644  0.25323301  0.57275195     0.10100
C1123       C  0.48761409  0.23333654  0.58698629     0.10500
C1124       C  0.46538571  0.22165471  0.58094331    -0.16800
C1125       C  0.45128535  0.22888634  0.56048756    -0.27200
C1126       C  0.45865562  0.24974037  0.54707407     0.18800
C1127       C  0.52060422  0.26361867  0.57587187     0.12800
C1128       C  0.50321892  0.22361572  0.60773031    -0.11600
H1129       H  0.45986234  0.20577626  0.59127817     0.13100
C1130       C  0.44379669  0.25939758  0.52571539    -0.22400
H1131       H  0.48669830  0.27721570  0.54294807     0.08700
C1132       C  0.53975529  0.25665343  0.55987461     0.05000
C1133       C  0.56369532  0.26494990  0.56461645    -0.19600
C1134       C  0.56922498  0.28014107  0.58501945    -0.11900
C1135       C  0.54961704  0.28813190  0.60034515     0.13800
C1136       C  0.52559502  0.27968900  0.59554406    -0.22400
C1137       C  0.53509160  0.23979783  0.53817884    -0.05400
H1138       H  0.57835481  0.25884325  0.55258689     0.15300
C1139       C  0.55370750  0.30493934  0.62215316    -0.15600
H1140       H  0.51067565  0.28514938  0.60755079     0.09600
H1141       H  0.44409293  0.24617560  0.51007843     0.07500
H1142       H  0.45130944  0.27689657  0.51885998     0.08700
H1143       H  0.42457049  0.26279810  0.53156344     0.07700
H1144       H  0.50592671  0.23809581  0.62196779     0.02600
H1145       H  0.52137595  0.21771543  0.60055449     0.03100
H1146       H  0.49454891  0.20766567  0.61666123     0.06600
H1147       H  0.55221843  0.23563373  0.52792776     0.05600
H1148       H  0.52195461  0.24847484  0.52519090    -0.00200
H1149       H  0.52732473  0.22226447  0.54462876     0.01300
H1150       H  0.53623972  0.30947033  0.63165933     0.04900
H1151       H  0.56190457  0.32236110  0.61593909     0.06900
H1152       H  0.56603611  0.29605610  0.63577488     0.07700
C1153       C  0.39225117  0.15751176  0.36416317    -0.21900
C1154       C  0.41472057  0.16296903  0.37559845     0.10100
C1155       C  0.43629147  0.16386920  0.36155363     0.10500
C1156       C  0.43500332  0.15881486  0.33624320    -0.16800
C1157       C  0.41261032  0.15281308  0.32455405    -0.27200
C1158       C  0.39079195  0.15251808  0.33878092     0.18800
C1159       C  0.41527879  0.16685742  0.40252341     0.12800
C1160       C  0.46063305  0.17029488  0.37327754    -0.11600
H1161       H  0.45175205  0.15930998  0.32562120     0.13100
C1162       C  0.36589403  0.14713949  0.32767457    -0.22400
H1163       H  0.37579956  0.15695667  0.37529173     0.08700
C1164       C  0.40688992  0.18881805  0.41336549     0.05000
C1165       C  0.40608345  0.19083629  0.43908450    -0.19600
C1166       C  0.41350954  0.17138105  0.45419496    -0.11900
C1167       C  0.42307384  0.14975472  0.44314653     0.13800
C1168       C  0.42366321  0.14778707  0.41739478    -0.22400
C1169       C  0.39871435  0.21001830  0.39778475    -0.05400
H1170       H  0.39914221  0.20757739  0.44740778     0.15300
C1171       C  0.43188757  0.12829451  0.45806715    -0.15600
H1172       H  0.43022189  0.13108650  0.40872516     0.09600
H1173       H  0.36165631  0.16050850  0.31298261     0.07500
H1174       H  0.35105491  0.14851509  0.34157559     0.08700
H1175       H  0.36554965  0.12825335  0.31997944     0.07700
H1176       H  0.46559007  0.15654796  0.38737013     0.02600
H1177       H  0.45940771  0.18863805  0.38218047     0.03100
H1178       H  0.47562485  0.17071960  0.35952161     0.06600
H1179       H  0.39316096  0.22603102  0.40924787     0.05600
H1180       H  0.38274256  0.20458622  0.38617396    -0.00200
H1181       H  0.41400411  0.21572772  0.38572305     0.01300
H1182       H  0.41671424  0.12135449  0.46959800     0.04900
H1183       H  0.44762524  0.13390098  0.46993357     0.06900
H1184       H  0.43824963  0.11292226  0.44615593     0.07700
C1185       C  0.22657735  0.21374569  0.50355197    -0.21900
C1186       C  0.24767770  0.20580106  0.49108852     0.10100
C1187       C  0.24709352  0.20359369  0.46514850     0.10500
C1188       C  0.22553630  0.20962099  0.45226842    -0.16800
C1189       C  0.20446101  0.21810313  0.46454135    -0.27200
C1190       C  0.20501179  0.22015678  0.49060947     0.18800
C1191       C  0.27061797  0.20053761  0.50512158     0.12800
C1192       C  0.26950658  0.19568624  0.45091165    -0.11600
H1193       H  0.22533803  0.20819744  0.43233413     0.13100
C1194       C  0.18351480  0.23025412  0.50482847    -0.22400
H1195       H  0.22720684  0.21545736  0.52345865     0.08700
C1196       C  0.28603335  0.21945856  0.51395325     0.05000
C1197       C  0.30967644  0.21366759  0.52283009    -0.19600
C1198       C  0.31828927  0.18937851  0.52299596    -0.11900
C1199       C  0.30188699  0.17030759  0.51607463     0.13800
C1200       C  0.27829523  0.17619834  0.50729376    -0.22400
C1201       C  0.27789511  0.24579781  0.51311115    -0.05400
H1202       H  0.32190853  0.22833057  0.52847816     0.15300
C1203       C  0.30893911  0.14366755  0.51772633    -0.15600
H1204       H  0.26610607  0.16176491  0.50097692     0.09600
H1205       H  0.17900778  0.24894722  0.49834754     0.07500
H1206       H  0.18755381  0.23148521  0.52488827     0.08700
H1207       H  0.16734474  0.21816988  0.50226113     0.07700
H1208       H  0.27489718  0.17683303  0.45608365     0.02600
H1209       H  0.28495178  0.20833913  0.45501204     0.03100
H1210       H  0.26611239  0.19576923  0.43071276     0.06600
H1211       H  0.29234052  0.25834208  0.52027526     0.05600
H1212       H  0.26127838  0.24840019  0.52459459    -0.00200
H1213       H  0.27357859  0.25094898  0.49383202     0.01300
H1214       H  0.31568786  0.13960013  0.53660045     0.04900
H1215       H  0.32331809  0.13910649  0.50403635     0.06900
H1216       H  0.29306588  0.13149569  0.51377768     0.07700
C1217       C  0.02488476  0.26169675  0.43096417    -0.21900
C1218       C  0.02078449  0.27820808  0.45048047     0.10100
C1219       C  0.04085010  0.28573140  0.46536787     0.10500
C1220       C  0.06441679  0.27667175  0.46028737    -0.16800
C1221       C  0.06886906  0.26086133  0.44019087    -0.27200
C1222       C  0.04869521  0.25333765  0.42524177     0.18800
C1223       C  0.99567815  0.28830791  0.45458940     0.12800
C1224       C  0.03779937  0.30425380  0.48595856    -0.11600
H1225       H  0.07966129  0.28268045  0.47174491     0.13100
C1226       C  0.05204679  0.23753049  0.40259305    -0.22400
H1227       H  0.00941009  0.25582577  0.41974095     0.08700
C1228       C  0.98445237  0.30453256  0.43776909     0.05000
C1229       C  0.96243396  0.31634667  0.44426812    -0.19600
C1230       C  0.95157146  0.31278364  0.46734648    -0.11900
C1231       C  0.96253616  0.29599708  0.48389450     0.13800
C1232       C  0.98398889  0.28347409  0.47692731    -0.22400
C1233       C  0.99620698  0.31042211  0.41349627    -0.05400
H1234       H  0.95416413  0.32922977  0.43160459     0.15300
C1235       C  0.95299197  0.29246520  0.50963077    -0.15600
H1236       H  0.99252075  0.27078534  0.48959287     0.09600
H1237       H  0.06455422  0.24669371  0.38954411     0.07500
H1238       H  0.03436783  0.23420500  0.39279316     0.08700
H1239       H  0.05975698  0.21949282  0.40782416     0.07700
H1240       H  0.02604151  0.29678943  0.50064622     0.02600
H1241       H  0.02935830  0.32123726  0.47865997     0.03100
H1242       H  0.05568722  0.30920763  0.49458722     0.06600
H1243       H  0.98552974  0.32437956  0.40320555     0.05600
H1244       H  0.99721962  0.29375411  0.40172197    -0.00200
H1245       H  0.01499200  0.31768276  0.41670411     0.01300
H1246       H  0.93418088  0.28474369  0.50886354     0.04900
H1247       H  0.95280315  0.31025648  0.51972345     0.06900
H1248       H  0.96468402  0.27966163  0.52033810     0.07700
C1249       C  0.22961540  0.58874632  0.47650875    -0.21900
C1250       C  0.24448977  0.57121597  0.48800696     0.10100
C1251       C  0.24991641  0.54912942  0.47561449     0.10500
C1252       C  0.23913436  0.54440847  0.45252166    -0.16800
C1253       C  0.22285854  0.56119687  0.44150392    -0.27200
C1254       C  0.21874781  0.58409033  0.45333630     0.18800
C1255       C  0.25203204  0.57523506  0.51399574     0.12800
C1256       C  0.26657585  0.53029555  0.48709665    -0.11600
H1257       H  0.24273933  0.52702347  0.44344171     0.13100
C1258       C  0.20203354  0.60318661  0.44242412    -0.22400
H1259       H  0.22568549  0.60573349  0.48621806     0.08700
C1260       C  0.27283677  0.58914085  0.52054080     0.05000
C1261       C  0.27847954  0.59298061  0.54557161    -0.19600
C1262       C  0.26358953  0.58346205  0.56425090    -0.11900
C1263       C  0.24297228  0.56892228  0.55746459     0.13800
C1264       C  0.23760385  0.56499890  0.53242411    -0.22400
C1265       C  0.28891340  0.60002817  0.50109364    -0.05400
H1266       H  0.29422409  0.60412559  0.55051907     0.15300
C1267       C  0.22644015  0.55735095  0.57621681    -0.15600
H1268       H  0.22174997  0.55414925  0.52708029     0.09600
H1269       H  0.20075670  0.61973781  0.45440949     0.07500
H1270       H  0.18322272  0.59569641  0.44008190     0.08700
H1271       H  0.20922736  0.60895614  0.42431824     0.07700
H1272       H  0.25862652  0.52390714  0.50465538     0.02600
H1273       H  0.28488821  0.53845337  0.49085757     0.03100
H1274       H  0.26915218  0.51412275  0.47481456     0.06600
H1275       H  0.30452116  0.61037176  0.50932141     0.05600
H1276       H  0.27796518  0.61276792  0.48958490    -0.00200
H1277       H  0.29651657  0.58524060  0.48919007     0.01300
H1278       H  0.21641052  0.57169926  0.58674131     0.04900
H1279       H  0.23749833  0.54589666  0.58894118     0.06900
H1280       H  0.21239938  0.54537377  0.56738836     0.07700
C1281       C  0.19525320  0.41385185  0.39370860    -0.21900
C1282       C  0.17365304  0.40403006  0.40314054     0.10100
C1283       C  0.15366865  0.41942290  0.40886270     0.10500
C1284       C  0.15557128  0.44451319  0.40452261    -0.16800
C1285       C  0.17695436  0.45456352  0.39440450    -0.27200
C1286       C  0.19721309  0.43895460  0.38910603     0.18800
C1287       C  0.17167042  0.37732628  0.40548062     0.12800
C1288       C  0.13027497  0.40929135  0.41933161    -0.11600
H1289       H  0.14003356  0.45625127  0.40869224     0.13100
C1290       C  0.22096683  0.44831827  0.37870373    -0.22400
H1291       H  0.21043271  0.40166379  0.38942798     0.08700
C1292       C  0.16160144  0.36304508  0.38624769     0.05000
C1293       C  0.15805173  0.33804289  0.38986547    -0.19600
C1294       C  0.16442565  0.32688498  0.41228030    -0.11900
C1295       C  0.17565514  0.34123258  0.43119493     0.13800
C1296       C  0.17904006  0.36635774  0.42748050    -0.22400
C1297       C  0.15441121  0.37428655  0.36198673    -0.05400
H1298       H  0.14990236  0.32725884  0.37508801     0.15300
C1299       C  0.18387133  0.33058936  0.45540520    -0.15600
H1300       H  0.18703067  0.37766816  0.44197206     0.09600
H1301       H  0.21770812  0.45594132  0.36009443     0.07500
H1302       H  0.23490217  0.43354457  0.37675416     0.08700
H1303       H  0.22880188  0.46258002  0.39114638     0.07700
H1304       H  0.13430341  0.40016846  0.43708214     0.02600
H1305       H  0.12208762  0.39577640  0.40629932     0.03100
H1306       H  0.11643258  0.42388395  0.42276331     0.06600
H1307       H  0.14688410  0.36046322  0.34885569     0.05600
H1308       H  0.17075914  0.38271996  0.35345382    -0.00200
H1309       H  0.14016587  0.38857158  0.36491136     0.01300
H1310       H  0.19242607  0.34460411  0.46766821     0.04900
H1311       H  0.19778571  0.31603842  0.45212688     0.06900
H1312       H  0.16786173  0.32299957  0.46526108     0.07700
C1313       C  0.19353816  0.47451934  0.22380602    -0.21900
C1314       C  0.20451243  0.49728876  0.22845715     0.10100
C1315       C  0.21972149  0.50758621  0.21043586     0.10500
C1316       C  0.22484994  0.49419809  0.18881971    -0.16800
C1317       C  0.21511270  0.47067917  0.18468194    -0.27200
C1318       C  0.19854979  0.46107013  0.20214619     0.18800
C1319       C  0.20161517  0.50881100  0.25322869     0.12800
C1320       C  0.23082021  0.53255034  0.21421032    -0.11600
H1321       H  0.23724310  0.50184797  0.17541880     0.13100
C1322       C  0.18714458  0.43615701  0.19890540    -0.22400
H1323       H  0.18178222  0.46678489  0.23773126     0.08700
C1324       C  0.17971028  0.52062934  0.26037260     0.05000
C1325       C  0.17724495  0.52921775  0.28473508    -0.19600
C1326       C  0.19598256  0.52588374  0.30241326    -0.11900
C1327       C  0.21827519  0.51453446  0.29493533     0.13800
C1328       C  0.22079207  0.50636430  0.27040923    -0.22400
C1329       C  0.15877958  0.52380299  0.24240374    -0.05400
H1330       H  0.16016193  0.53784095  0.29021205     0.15300
C1331       C  0.23900909  0.50964016  0.31278839    -0.15600
H1332       H  0.23752181  0.49712058  0.26476166     0.09600
H1333       H  0.17512482  0.43148653  0.21461115     0.07500
H1334       H  0.20174246  0.42197120  0.19767796     0.08700
H1335       H  0.17567203  0.43572370  0.18192337     0.07700
H1336       H  0.24300476  0.53259619  0.23068267     0.02600
H1337       H  0.21597135  0.54628135  0.21688672     0.03100
H1338       H  0.24190936  0.53811075  0.19812652     0.06600
H1339       H  0.14309001  0.53376724  0.25086218     0.05600
H1340       H  0.15209401  0.50564023  0.23602355    -0.00200
H1341       H  0.16509270  0.53435974  0.22629920     0.01300
H1342       H  0.23250182  0.49779284  0.32787493     0.04900
H1343       H  0.24599721  0.52716902  0.32053581     0.06900
H1344       H  0.25465915  0.50012031  0.30374939     0.07700
C1345       C  0.27436057  0.47710763  0.96253004    -0.21900
C1346       C  0.28305688  0.46006691  0.97959616     0.10100
C1347       C  0.30489658  0.44694658  0.97465080     0.10500
C1348       C  0.31842826  0.45230205  0.95346702    -0.16800
C1349       C  0.31079141  0.47073331  0.93731772    -0.27200
C1350       C  0.28794738  0.48262471  0.94138725     0.18800
C1351       C  0.27062380  0.45789714  0.00370915     0.12800
C1352       C  0.31443668  0.42801572  0.99229605    -0.11600
H1353       H  0.33574827  0.44300048  0.95025381     0.13100
C1354       C  0.27766274  0.50096086  0.92347722    -0.22400
H1355       H  0.25736297  0.48678945  0.96628730     0.08700
C1356       C  0.27620110  0.47418436  0.02325198     0.05000
C1357       C  0.26736357  0.46937385  0.04691927    -0.29200
C1358       C  0.25313506  0.44851718  0.05168799    -0.11900
C1359       C  0.24612586  0.43314799  0.03154113     0.13800
C1360       C  0.25500348  0.43811036  0.00783135    -0.22400
C1361       C  0.29236746  0.49610335  0.01930079    -0.05400
H1362       H  0.27257517  0.48148199  0.06200180     0.15300
C1363       C  0.23025336  0.41090371  0.03478045    -0.15600
H1364       H  0.25065850  0.42585080  0.99256651     0.09600
H1365       H  0.28936003  0.51751122  0.92312060     0.07500
H1366       H  0.25885770  0.50695094  0.92865954     0.08700
H1367       H  0.27663973  0.49261676  0.90475325     0.07700
H1368       H  0.30073263  0.41317256  0.99413337     0.02600
H1369       H  0.31783568  0.43656354  0.01064807     0.03100
H1370       H  0.33191817  0.41969107  0.98584311     0.06600
H1371       H  0.29521890  0.50681077  0.03658378     0.05600
H1372       H  0.28373141  0.50834750  0.00552567    -0.00200
H1373       H  0.31062716  0.49006560  0.01251237     0.01300
H1374       H  0.22636768  0.40148883  0.01694403     0.04900
H1375       H  0.21236192  0.41638794  0.04287505     0.06900
H1376       H  0.23969286  0.39754519  0.04687551     0.07700
C1377       C  0.50191127  0.26453217  0.16970341    -0.21900
C1378       C  0.50459360  0.25614478  0.19381626     0.10100
C1379       C  0.51979889  0.26929372  0.21043561     0.10500
C1380       C  0.52960375  0.29200789  0.20338967    -0.16800
C1381       C  0.52509007  0.30169928  0.17981729    -0.27200
C1382       C  0.51209583  0.28689809  0.16233520     0.18800
C1383       C  0.48952600  0.23484950  0.20164557     0.12800
C1384       C  0.52569932  0.25929849  0.23555508    -0.11600
H1385       H  0.54018214  0.30255882  0.21668121     0.13100
C1386       C  0.50815830  0.29448600  0.13597171    -0.22400
H1387       H  0.49081264  0.25395909  0.15682567     0.08700
C1388       C  0.46746362  0.23839621  0.21474666     0.05000
C1389       C  0.45347589  0.21803489  0.22160585    -0.19600
C1390       C  0.46028834  0.19396923  0.21494950    -0.11900
C1391       C  0.48181200  0.19060429  0.20057447     0.13800
C1392       C  0.49620663  0.21105747  0.19434488    -0.22400
C1393       C  0.45813214  0.26378196  0.22071622    -0.05400
H1394       H  0.43683432  0.22108019  0.23207793     0.15300
C1395       C  0.48986920  0.16568384  0.19163414    -0.15600
H1396       H  0.51271730  0.20852812  0.18358342     0.09600
H1397       H  0.49901834  0.27992319  0.12484740     0.07500
H1398       H  0.52613398  0.29826184  0.12727248     0.08700
H1399       H  0.49616853  0.31091537  0.13520666     0.07700
H1400       H  0.53496790  0.24127410  0.23349715     0.02600
H1401       H  0.50869695  0.25690372  0.24636607     0.03100
H1402       H  0.53812286  0.27164384  0.24615741     0.06600
H1403       H  0.44029206  0.26333362  0.23049958     0.05600
H1404       H  0.45541489  0.27411147  0.20340660    -0.00200
H1405       H  0.47144315  0.27372633  0.23263603     0.01300
H1406       H  0.47532435  0.15750592  0.17973432     0.04900
H1407       H  0.49364358  0.15366807  0.20757504     0.06900
H1408       H  0.50691127  0.16659814  0.18055767     0.07700
C1409       C  0.56373776  0.46152054  0.25637418    -0.21900
C1410       C  0.57732389  0.47993353  0.24491075     0.10100
C1411       C  0.58553459  0.47601944  0.22054548     0.10500
C1412       C  0.57929299  0.45427821  0.20790956    -0.16800
C1413       C  0.56462417  0.43635431  0.21881499    -0.27200
C1414       C  0.55728718  0.43977718  0.24363233     0.18800
C1415       C  0.58122945  0.50403110  0.25763817     0.12800
C1416       C  0.60014435  0.49526750  0.20752324    -0.11600
H1417       H  0.58495281  0.45179088  0.18893711     0.13100
C1418       C  0.54309782  0.42038767  0.25688415    -0.22400
H1419       H  0.55765735  0.46445435  0.27514448     0.08700
C1420       C  0.56306019  0.52247744  0.25685413     0.05000
C1421       C  0.56857462  0.54618313  0.26550123    -0.19600
C1422       C  0.59207783  0.55236283  0.27455041    -0.11900
C1423       C  0.61003068  0.53344438  0.27634885     0.13800
C1424       C  0.60424893  0.50954961  0.26804494    -0.22400
C1425       C  0.53812703  0.51744519  0.24574536    -0.05400
H1426       H  0.55460801  0.56028217  0.26412915     0.15300
C1427       C  0.63567219  0.53829410  0.28580204    -0.15600
H1428       H  0.61814743  0.49532648  0.26854944     0.09600
H1429       H  0.52482791  0.41778175  0.24810245     0.07500
H1430       H  0.54007502  0.42543960  0.27650779     0.08700
H1431       H  0.55347722  0.40286677  0.25632909     0.07700
H1432       H  0.61760769  0.49869485  0.21763647     0.02600
H1433       H  0.58938727  0.51253448  0.20664344     0.03100
H1434       H  0.60473622  0.48956910  0.18839896     0.06600
H1435       H  0.52614530  0.53392801  0.24618746     0.05600
H1436       H  0.52889236  0.50280165  0.25618214    -0.00200
H1437       H  0.54013302  0.51151303  0.22623167     0.01300
H1438       H  0.64710351  0.52142151  0.28581764     0.04900
H1439       H  0.63493063  0.54536877  0.30502874     0.06900
H1440       H  0.64490695  0.55176604  0.27387086     0.07700
C1441       C  0.41379143  0.38367682  0.16408641    -0.21900
C1442       C  0.40610890  0.40360873  0.15003757     0.10100
C1443       C  0.42365528  0.41968240  0.14034951     0.10500
C1444       C  0.44874106  0.41483851  0.14411327    -0.16800
C1445       C  0.45668051  0.39478947  0.15815955    -0.27200
C1446       C  0.43881482  0.37913856  0.16855191     0.18800
C1447       C  0.37946613  0.40747013  0.14618787     0.12800
C1448       C  0.41585640  0.44220364  0.12654474    -0.11600
H1449       H  0.46221122  0.42706966  0.13640061     0.13100
C1450       C  0.44570789  0.35739580  0.18403545    -0.22400
H1451       H  0.40004027  0.37166120  0.17166365     0.08700
C1452       C  0.36725265  0.39826576  0.12511567     0.05000
C1453       C  0.34189721  0.40215450  0.12249555    -0.19600
C1454       C  0.32825315  0.41455167  0.14074927    -0.11900
C1455       C  0.34067657  0.42337293  0.16217774     0.13800
C1456       C  0.36614554  0.41979614  0.16445750    -0.22400
C1457       C  0.38089121  0.38388536  0.10567329    -0.05400
H1458       H  0.33267250  0.39511965  0.10616119     0.15300
C1459       C  0.32755529  0.43649031  0.18285140    -0.15600
H1460       H  0.37579107  0.42648925  0.18068829     0.09600
H1461       H  0.42931244  0.34688617  0.18973842     0.07500
H1462       H  0.45524972  0.36362790  0.20110373     0.08700
H1463       H  0.45777399  0.34479616  0.17339483     0.07700
H1464       H  0.40449649  0.45409595  0.13869000     0.02600
H1465       H  0.40490616  0.43699625  0.11001074     0.03100
H1466       H  0.43190713  0.45297896  0.12041241     0.06600
H1467       H  0.36851670  0.37781839  0.09045771     0.05600
H1468       H  0.38929779  0.36737409  0.11401593    -0.00200
H1469       H  0.39558764  0.39525221  0.09765744     0.01300
H1470       H  0.34036790  0.44206167  0.19788979     0.04900
H1471       H  0.31363743  0.42424478  0.19099544     0.06900
H1472       H  0.31860749  0.45333703  0.17584501     0.07700
C1473       C  0.37675368  0.82177305  0.74856908    -0.21900
C1474       C  0.35902341  0.82712525  0.76629589     0.10100
C1475       C  0.33696058  0.83825144  0.75883410     0.10500
C1476       C  0.33209096  0.84129684  0.73359560    -0.16800
C1477       C  0.34771447  0.83149826  0.71497632    -0.27200
C1478       C  0.37186499  0.82449727  0.72316248     0.18800
C1479       C  0.36361199  0.82027792  0.79242436     0.12800
C1480       C  0.31825679  0.84645312  0.77753997    -0.11600
H1481       H  0.31555459  0.85110935  0.72882917     0.13100
C1482       C  0.39251361  0.81824630  0.70590519    -0.22400
H1483       H  0.39428742  0.81450120  0.75468269     0.08700
C1484       C  0.35860823  0.79647634  0.80074004     0.05000
C1485       C  0.36265702  0.79076349  0.82559166    -0.19600
C1486       C  0.37149706  0.80825995  0.84271289    -0.11900
C1487       C  0.37645657  0.83223692  0.83423672     0.13800
C1488       C  0.37252522  0.83783419  0.80920319    -0.22400
C1489       C  0.34870637  0.77711027  0.78342435    -0.05400
H1490       H  0.35873148  0.77237629  0.83163817     0.15300
C1491       C  0.38551239  0.85220324  0.85129399    -0.15600
H1492       H  0.37620395  0.85611134  0.80266018     0.09600
H1493       H  0.40954786  0.81306935  0.71597803     0.07500
H1494       H  0.39732239  0.83430071  0.69472668     0.08700
H1495       H  0.38753876  0.80229264  0.69437739     0.07700
H1496       H  0.32649966  0.86039034  0.79008389     0.02600
H1497       H  0.31220520  0.83056582  0.78849463     0.03100
H1498       H  0.30176507  0.85464454  0.76868981     0.06600
H1499       H  0.34543383  0.75956030  0.79295821     0.05600
H1500       H  0.36207799  0.77360657  0.76845769    -0.00200
H1501       H  0.33099025  0.78332390  0.77535311     0.01300
H1502       H  0.40357702  0.84698856  0.85929571     0.04900
H1503       H  0.37200072  0.85540978  0.86622048     0.06900
H1504       H  0.38796761  0.86975867  0.84151936     0.07700
C1505       C  0.21522432  0.85163960  0.68334279    -0.21900
C1506       C  0.23539926  0.86021849  0.69703338     0.10100
C1507       C  0.23158840  0.87605516  0.71731007     0.10500
C1508       C  0.20753841  0.88240961  0.72393966    -0.16800
C1509       C  0.18716763  0.87324235  0.71081327    -0.27200
C1510       C  0.19106108  0.85769914  0.69009915     0.18800
C1511       C  0.26027195  0.85078609  0.69137039     0.12800
C1512       C  0.25293080  0.88572629  0.73229023    -0.11600
H1513       H  0.20457403  0.89418287  0.73984571     0.13100
C1514       C  0.17049411  0.84579380  0.67563223    -0.22400
H1515       H  0.21833015  0.83922180  0.66794836     0.08700
C1516       C  0.26935939  0.82965538  0.70269099     0.05000
C1517       C  0.29385580  0.82291325  0.69904334    -0.19600
C1518       C  0.31043985  0.83699954  0.68495406    -0.11900
C1519       C  0.29929387  0.85559913  0.66985433     0.13800
C1520       C  0.27499509  0.86311127  0.67468193    -0.22400
C1521       C  0.25337290  0.81460828  0.71924865    -0.05400
H1522       H  0.30057178  0.80708535  0.70893796     0.15300
C1523       C  0.31002386  0.86659645  0.64689452    -0.15600
H1524       H  0.26706177  0.87828860  0.66459208     0.09600
H1525       H  0.17274213  0.82560784  0.67614623     0.07500
H1526       H  0.17125325  0.85174769  0.65616635     0.08700
H1527       H  0.15199530  0.85002065  0.68279733     0.07700
H1528       H  0.26533318  0.89630103  0.72027813     0.02600
H1529       H  0.26336563  0.87030459  0.74047399     0.03100
H1530       H  0.24675074  0.89794663  0.74752244     0.06600
H1531       H  0.26341320  0.79857180  0.72676280     0.05600
H1532       H  0.23722325  0.80774129  0.70870457    -0.00200
H1533       H  0.24693373  0.82595702  0.73501564     0.01300
H1534       H  0.32666485  0.85759074  0.63994794     0.04900
H1535       H  0.31357184  0.88637649  0.64998331     0.06900
H1536       H  0.29653123  0.86477025  0.63152986     0.07700
C1537       C  0.33321586  0.75826179  0.67737664    -0.21900
C1538       C  0.32781939  0.75706575  0.65229793     0.10100
C1539       C  0.32726144  0.77865212  0.63866222     0.10500
C1540       C  0.33150878  0.80105972  0.65075192    -0.16800
C1541       C  0.33814611  0.80301380  0.67611588    -0.27200
C1542       C  0.33849609  0.78038367  0.68970887     0.18800
C1543       C  0.32057184  0.73293634  0.64186777     0.12800
C1544       C  0.32240766  0.77806951  0.61130674    -0.11600
H1545       H  0.32981776  0.81744697  0.63998072     0.13100
C1546       C  0.34305067  0.77764949  0.71709382    -0.22400
H1547       H  0.33285646  0.74131028  0.68755901     0.08700
C1548       C  0.33727491  0.71317798  0.64091353     0.05000
C1549       C  0.32837705  0.68936296  0.63707206    -0.19600
C1550       C  0.30309694  0.68475767  0.63425889    -0.11900
C1551       C  0.28661908  0.70500570  0.63303266     0.13800
C1552       C  0.29565433  0.72875338  0.63699883    -0.22400
C1553       C  0.36445200  0.71719270  0.64445181    -0.05400
H1554       H  0.34121231  0.67418897  0.63731342     0.15300
C1555       C  0.25937679  0.70206170  0.62863387    -0.15600
H1556       H  0.28295402  0.74406320  0.63783429     0.09600
H1557       H  0.33830294  0.75910676  0.72367928     0.07500
H1558       H  0.33161303  0.79010502  0.72835346     0.08700
H1559       H  0.36280724  0.77947674  0.72131690     0.07700
H1560       H  0.30381409  0.77070251  0.60740033     0.02600
H1561       H  0.33631794  0.76627803  0.60210349     0.03100
H1562       H  0.32347931  0.79660255  0.60320951     0.06600
H1563       H  0.37501743  0.69990085  0.64227528     0.05600
H1564       H  0.36831828  0.72461709  0.66316740    -0.00200
H1565       H  0.37109842  0.73031053  0.63054597     0.01300
H1566       H  0.24976653  0.71998694  0.62764898     0.04900
H1567       H  0.25103935  0.69178516  0.64396182     0.06900
H1568       H  0.25609792  0.69235551  0.61084522     0.07700
C1569       C  0.43610238  0.90453142  0.52085840    -0.21900
C1570       C  0.45181643  0.91757469  0.50557370     0.10100
C1571       C  0.46270890  0.93911650  0.51457432     0.10500
C1572       C  0.45747533  0.94720393  0.53851056    -0.16800
C1573       C  0.44118896  0.93481519  0.55457027    -0.27200
C1574       C  0.43124582  0.91199155  0.54540272     0.18800
C1575       C  0.45679839  0.90842407  0.48013928     0.12800
C1576       C  0.47922761  0.95426815  0.49860507    -0.11600
H1577       H  0.46559350  0.96432168  0.54445368     0.13100
C1578       C  0.41727866  0.89342128  0.56016526    -0.22400
H1579       H  0.42821495  0.88767969  0.51373676     0.08700
C1580       C  0.47839056  0.89523126  0.47446384     0.05000
C1581       C  0.48351173  0.88923542  0.44976531    -0.19600
C1582       C  0.46719909  0.89536249  0.43051179    -0.11900
C1583       C  0.44485577  0.90739460  0.43650306     0.13800
C1584       C  0.44010616  0.91396997  0.46120291    -0.22400
C1585       C  0.49586371  0.88718605  0.49449799    -0.05400
H1586       H  0.50043770  0.87965378  0.44548160     0.15300
C1587       C  0.42626172  0.91409938  0.41702035    -0.15600
H1588       H  0.42345191  0.92389436  0.46576897     0.09600
H1589       H  0.42364754  0.87468907  0.55518729     0.07500
H1590       H  0.39736921  0.89437980  0.55579861     0.08700
H1591       H  0.42052852  0.89447363  0.58007930     0.07700
H1592       H  0.46900196  0.96011494  0.48190572     0.02600
H1593       H  0.49555651  0.94350277  0.49290783     0.03100
H1594       H  0.48586084  0.97095460  0.50839370     0.06600
H1595       H  0.51166944  0.87671550  0.48691402     0.05600
H1596       H  0.48604319  0.87524523  0.50755665    -0.00200
H1597       H  0.50322607  0.90322806  0.50475425     0.01300
H1598       H  0.41924948  0.89726905  0.40780882     0.04900
H1599       H  0.43481182  0.92618030  0.40321372     0.06900
H1600       H  0.41025485  0.92397200  0.42497193     0.07700
C1601       C  0.50512748  0.93257501  0.60272330    -0.21900
C1602       C  0.51536205  0.95579451  0.60526923     0.10100
C1603       C  0.50092305  0.97639615  0.59993272     0.10500
C1604       C  0.47644896  0.97334973  0.59248676    -0.16800
C1605       C  0.46494889  0.95004009  0.59034302    -0.27200
C1606       C  0.48068591  0.92915682  0.59466054     0.18800
C1607       C  0.54189335  0.95830766  0.61133614     0.12800
C1608       C  0.51149152  0.00186857  0.60162902    -0.11600
H1609       H  0.46725416  0.98978134  0.58674064     0.13100
C1610       C  0.47324833  0.90293450  0.58963719    -0.22400
H1611       H  0.51690109  0.91688161  0.60599665     0.08700
C1612       C  0.55102157  0.95585675  0.63556249     0.05000
C1613       C  0.57566643  0.96187360  0.64071309    -0.19600
C1614       C  0.59132995  0.97040872  0.62216941    -0.11900
C1615       C  0.58241567  0.97115836  0.59753429     0.13800
C1616       C  0.55790567  0.96491982  0.59251101    -0.22400
C1617       C  0.53458275  0.94754528  0.65601118    -0.05400
H1618       H  0.58243999  0.96075415  0.65949698     0.15300
C1619       C  0.59843423  0.97838970  0.57627371    -0.15600
H1620       H  0.55083479  0.96609358  0.57383660     0.09600
H1621       H  0.48772899  0.88980034  0.59542805     0.07500
H1622       H  0.47074243  0.89973376  0.56965691     0.08700
H1623       H  0.45672413  0.89778299  0.59988933     0.07700
H1624       H  0.52642347  0.00396391  0.58802057     0.02600
H1625       H  0.51891107  0.00525453  0.62045490     0.03100
H1626       H  0.49746374  0.01614637  0.59779379     0.06600
H1627       H  0.54449922  0.94694376  0.67394563     0.05600
H1628       H  0.52763407  0.92888887  0.65178807    -0.00200
H1629       H  0.51877635  0.96029551  0.65793118     0.01300
H1630       H  0.58882323  0.97604400  0.55828839     0.04900
H1631       H  0.61520777  0.96677647  0.57586492     0.06900
H1632       H  0.60356313  0.99795510  0.57798864     0.07700
C1633       C  0.41648479  0.01179703  0.55450519    -0.21900
C1634       C  0.41788081  0.02589881  0.57598444     0.10100
C1635       C  0.42008862  0.01415169  0.59877542     0.10500
C1636       C  0.42368190  0.98866554  0.59923477    -0.16800
C1637       C  0.42578429  0.97428754  0.57731022    -0.27200
C1638       C  0.41863188  0.98621867  0.55474410     0.18800
C1639       C  0.41590604  0.05287784  0.57366478     0.12800
C1640       C  0.41984106  0.02863763  0.62251276    -0.11600
H1641       H  0.42725968  0.98024725  0.61687434     0.13100
C1642       C  0.41082533  0.97420928  0.53067962    -0.22400
H1643       H  0.41276884  0.02097723  0.53722297     0.08700
C1644       C  0.43556715  0.06676304  0.56449466     0.05000
C1645       C  0.43173079  0.09146938  0.55872068    -0.19600
C1646       C  0.40876833  0.10283017  0.56222642    -0.11900
C1647       C  0.38938138  0.08907036  0.57249993     0.13800
C1648       C  0.39321235  0.06424145  0.57794243    -0.22400
C1649       C  0.46056153  0.05543217  0.56071010    -0.05400
H1650       H  0.44672171  0.10190515  0.55110250     0.15300
C1651       C  0.36426187  0.09993945  0.57668343    -0.15600
H1652       H  0.37817359  0.05336057  0.58477653     0.09600
H1653       H  0.42394885  0.97899039  0.51593266     0.07500
H1654       H  0.39243464  0.98131100  0.52526877     0.08700
H1655       H  0.40860025  0.95433642  0.53100476     0.07700
H1656       H  0.40204833  0.03843834  0.62437434     0.02600
H1657       H  0.43501679  0.04215273  0.62259255     0.03100
H1658       H  0.42219810  0.01669091  0.63877933     0.06600
H1659       H  0.47401751  0.06893985  0.55386262     0.05600
H1660       H  0.45939342  0.04022815  0.54704632    -0.00200
H1661       H  0.46756141  0.04821836  0.57847221     0.01300
H1662       H  0.35659186  0.10679609  0.55904277     0.04900
H1663       H  0.36548950  0.11515561  0.59033154     0.06900
H1664       H  0.35122918  0.08627199  0.58400074     0.07700
C1665       C  0.38108463  0.91686031  0.61331145    -0.21900
C1666       C  0.39230337  0.90712739  0.63426690     0.10100
C1667       C  0.41671097  0.91353419  0.63969479     0.10500
C1668       C  0.42982775  0.92807250  0.62316372    -0.16800
C1669       C  0.42025228  0.93485433  0.59972149    -0.27200
C1670       C  0.39424986  0.93120061  0.59640627     0.18800
C1671       C  0.37940361  0.88781063  0.64837244     0.12800
C1672       C  0.42926364  0.90433440  0.66266762    -0.11600
H1673       H  0.44811054  0.93330302  0.62879968     0.13100
C1674       C  0.37963202  0.94193980  0.57544901    -0.22400
H1675       H  0.36192584  0.91257194  0.60982447     0.08700
C1676       C  0.36478157  0.89278503  0.66907253     0.05000
C1677       C  0.35344575  0.87330631  0.68134690    -0.19600
C1678       C  0.35556458  0.84850407  0.67335183    -0.11900
C1679       C  0.37259694  0.84378399  0.65350812     0.13800
C1680       C  0.38308213  0.86357600  0.64104213    -0.22400
C1681       C  0.36052631  0.91867684  0.67781110    -0.05400
H1682       H  0.34158871  0.87768452  0.69671798     0.15300
C1683       C  0.38250827  0.81927390  0.64485154    -0.15600
H1684       H  0.39526467  0.86000386  0.62563826     0.09600
H1685       H  0.37976147  0.96216238  0.57655004     0.07500
H1686       H  0.36000904  0.93649117  0.57602762     0.08700
H1687       H  0.38670206  0.93538086  0.55764243     0.07700
H1688       H  0.42954063  0.88402902  0.66248884     0.02600
H1689       H  0.41928931  0.91091088  0.67922208     0.03100
H1690       H  0.44855255  0.91076733  0.66414098     0.06600
H1691       H  0.34834116  0.91945337  0.69413283     0.05600
H1692       H  0.35174763  0.92938754  0.66286998    -0.00200
H1693       H  0.37826116  0.92730627  0.68298387     0.01300
H1694       H  0.40291755  0.81984495  0.64506548     0.04900
H1695       H  0.37635861  0.81565394  0.62560482     0.06900
H1696       H  0.37794938  0.80345797  0.65604419     0.07700
C1697       C  0.70217083  0.31743937  0.76327636    -0.21900
C1698       C  0.68201553  0.33100895  0.75522712     0.10100
C1699       C  0.66978076  0.34637291  0.77204219     0.10500
C1700       C  0.67718781  0.34680979  0.79690206    -0.16800
C1701       C  0.69659738  0.33195201  0.80613926    -0.27200
C1702       C  0.71034798  0.31829375  0.78790128     0.18800
C1703       C  0.67343812  0.32765647  0.72933685     0.12800
C1704       C  0.64893328  0.36255263  0.76367695    -0.11600
H1705       H  0.66737481  0.35915080  0.80888529     0.13100
C1706       C  0.73401608  0.30465290  0.79314849    -0.22400
H1707       H  0.71173147  0.30609020  0.74991785     0.08700
C1708       C  0.68688046  0.33638813  0.70908870     0.05000
C1709       C  0.67919427  0.33029315  0.68498127    -0.19600
C1710       C  0.65882745  0.31504923  0.68070494    -0.11900
C1711       C  0.64486314  0.30714311  0.70106835     0.13800
C1712       C  0.65231801  0.31366071  0.72504981    -0.22400
C1713       C  0.70949065  0.35181160  0.71292278    -0.05400
H1714       H  0.68987914  0.33643064  0.66946895     0.15300
C1715       C  0.62201245  0.29189345  0.69779853    -0.15600
H1716       H  0.64209943  0.30704369  0.74068138     0.09600
H1717       H  0.74893366  0.31795085  0.79655615     0.07500
H1718       H  0.74003988  0.29335977  0.77714943     0.08700
H1719       H  0.73243399  0.29196776  0.80872049     0.07700
H1720       H  0.63362989  0.35122477  0.75631580     0.02600
H1721       H  0.65545522  0.37492337  0.74903206     0.03100
H1722       H  0.64162626  0.37401190  0.77899237     0.06600
H1723       H  0.71743649  0.35763575  0.69514303     0.05600
H1724       H  0.72377200  0.34127528  0.72295832    -0.00200
H1725       H  0.70473707  0.36847001  0.72378075     0.01300
H1726       H  0.62678061  0.27351975  0.69037045     0.04900
H1727       H  0.60900301  0.30117029  0.68509079     0.06900
H1728       H  0.61245209  0.28913794  0.71555865     0.07700
C1729       C  0.76275021  0.36928717  0.82497712    -0.21900
C1730       C  0.78107025  0.35304497  0.83233554     0.10100
C1731       C  0.77445530  0.33073489  0.84288520     0.10500
C1732       C  0.74950423  0.32452074  0.84459137    -0.16800
C1733       C  0.73026240  0.34022740  0.83630747    -0.27200
C1734       C  0.73771392  0.36359254  0.82693398     0.18800
C1735       C  0.80683693  0.35847258  0.82562638     0.12800
C1736       C  0.79387300  0.31298751  0.85149742    -0.11600
H1737       H  0.74572287  0.30639150  0.85088107     0.13100
C1738       C  0.72051085  0.38341106  0.81808268    -0.22400
H1739       H  0.76812274  0.38646480  0.81684424     0.08700
C1740       C  0.81605015  0.35079999  0.80262450     0.05000
C1741       C  0.83997363  0.35711544  0.79605676    -0.19600
C1742       C  0.85513052  0.37131314  0.81168063    -0.11900
C1743       C  0.84590034  0.37883507  0.83499059     0.13800
C1744       C  0.82179339  0.37229393  0.84162582    -0.22400
C1745       C  0.80045629  0.33625056  0.78470753    -0.05400
H1746       H  0.84671946  0.35104791  0.77828611     0.15300
C1747       C  0.86093421  0.39405030  0.85275738    -0.15600
H1748       H  0.81443222  0.37821381  0.85921889     0.09600
H1749       H  0.72299381  0.38606674  0.79800217     0.07500
H1750       H  0.72488280  0.40082724  0.82786304     0.08700
H1751       H  0.70103153  0.38001929  0.82148369     0.07700
H1752       H  0.80539299  0.32183400  0.86598840     0.02600
H1753       H  0.80574785  0.30739653  0.83587133     0.03100
H1754       H  0.78572341  0.29621433  0.85933765     0.06600
H1755       H  0.81045182  0.33190997  0.76743029     0.05600
H1756       H  0.78374345  0.34686380  0.77977355    -0.00200
H1757       H  0.79496206  0.31871844  0.79311378     0.01300
H1758       H  0.85059482  0.39849773  0.86981006     0.04900
H1759       H  0.86607509  0.41156396  0.84404986     0.06900
H1760       H  0.87774473  0.38385818  0.85821642     0.07700
C1761       C  0.69240236  0.21468046  0.88096242    -0.21900
C1762       C  0.70826493  0.22897736  0.86690169     0.10100
C1763       C  0.73131182  0.21949647  0.85991800     0.10500
C1764       C  0.73772427  0.19562318  0.86647688    -0.16800
C1765       C  0.72183336  0.18086644  0.88019109    -0.27200
C1766       C  0.69893556  0.19071874  0.88785244     0.18800
C1767       C  0.70137770  0.25436473  0.86043279     0.12800
C1768       C  0.74935467  0.23476435  0.84581425    -0.11600
H1769       H  0.75537217  0.18844360  0.86070418     0.13100
C1770       C  0.68169689  0.17657022  0.90389033    -0.22400
H1771       H  0.67495328  0.22239924  0.88669224     0.08700
C1772       C  0.69216550  0.26018635  0.83704199     0.05000
C1773       C  0.69121142  0.28474673  0.82987289    -0.19600
C1774       C  0.69969196  0.30426881  0.84529135    -0.11900
C1775       C  0.70527894  0.29788206  0.87042388     0.13800
C1776       C  0.70681109  0.27312823  0.87711013    -0.22400
C1777       C  0.68376410  0.24033829  0.81943906    -0.05400
H1778       H  0.68427536  0.28813803  0.81157622     0.15300
C1779       C  0.71038960  0.31628160  0.89075068    -0.15600
H1780       H  0.71299083  0.26821868  0.89542974     0.09600
H1781       H  0.67509425  0.16001520  0.89391074     0.07500
H1782       H  0.66532247  0.18760383  0.90908664     0.08700
H1783       H  0.69129487  0.17118615  0.92112924     0.07700
H1784       H  0.75396935  0.25152807  0.85659317     0.02600
H1785       H  0.74128622  0.24012967  0.82783648     0.03100
H1786       H  0.76670521  0.22466552  0.84213681     0.06600
H1787       H  0.67691407  0.24792002  0.80176956     0.05600
H1788       H  0.66862403  0.22986543  0.82790515    -0.00200
H1789       H  0.69917701  0.22766951  0.81523411     0.01300
H1790       H  0.69334736  0.32648797  0.89512836     0.04900
H1791       H  0.72543053  0.32882319  0.88597190     0.06900
H1792       H  0.71612410  0.30736110  0.90816053     0.07700
C1793       C  0.60851976  0.50775833  0.96897615    -0.21900
C1794       C  0.60941888  0.52001143  0.94670611     0.10100
C1795       C  0.60506582  0.50703943  0.92478158     0.10500
C1796       C  0.59935548  0.48203941  0.92573596    -0.16800
C1797       C  0.59931672  0.46838157  0.94797952    -0.27200
C1798       C  0.60286296  0.48268951  0.97044653     0.18800
C1799       C  0.61242171  0.54699957  0.94751747     0.12800
C1800       C  0.60611363  0.51971355  0.90033393    -0.11600
H1801       H  0.59461247  0.47296894  0.90861647     0.13100
C1802       C  0.59911600  0.47412332  0.99660701    -0.22400
H1803       H  0.61138373  0.51849150  0.98566698     0.08700
C1804       C  0.59224998  0.56242254  0.95273494     0.05000
C1805       C  0.59629734  0.58732419  0.95770212    -0.19600
C1806       C  0.62004972  0.59733246  0.95740569    -0.11900
C1807       C  0.64006506  0.58211777  0.95043949     0.13800
C1808       C  0.63597642  0.55705931  0.94579561    -0.22400
C1809       C  0.56650229  0.55242306  0.95367668    -0.05400
H1810       H  0.58084536  0.59890980  0.96262012     0.15300
C1811       C  0.66590643  0.59175477  0.94902104    -0.15600
H1812       H  0.65133657  0.54504995  0.94169052     0.09600
H1813       H  0.59775151  0.48964070  0.00992080     0.07500
H1814       H  0.61524534  0.46367314  0.00307270     0.08700
H1815       H  0.58160704  0.46432054  0.99885883     0.07700
H1816       H  0.62472981  0.52748173  0.89773464     0.02600
H1817       H  0.59234551  0.53472437  0.89978054     0.03100
H1818       H  0.60227138  0.50694301  0.88474647     0.06600
H1819       H  0.55280038  0.56700714  0.95768088     0.05600
H1820       H  0.56520078  0.53847649  0.96830597    -0.00200
H1821       H  0.56163805  0.54387106  0.93565743     0.01300
H1822       H  0.67920207  0.57718043  0.94377321     0.04900
H1823       H  0.67168905  0.59931810  0.96721144     0.06900
H1824       H  0.66684428  0.60623037  0.93488266     0.07700
C1825       C  0.52874474  0.44308475  0.90512364    -0.21900
C1826       C  0.51341346  0.45596832  0.92121865     0.10100
C1827       C  0.52273089  0.46392659  0.94403135     0.10500
C1828       C  0.54721673  0.45887400  0.95013428    -0.16800
C1829       C  0.56310008  0.44444335  0.93503879    -0.27200
C1830       C  0.55344395  0.43754014  0.91113578     0.18800
C1831       C  0.48784288  0.46169109  0.91340190     0.12800
C1832       C  0.50670331  0.47734360  0.96232879    -0.11600
H1833       H  0.55387679  0.46573927  0.96760967     0.13100
C1834       C  0.56812592  0.42592836  0.89056668    -0.22400
H1835       H  0.52124367  0.43768508  0.88733782     0.08700
C1836       C  0.48172204  0.48440987  0.90296273     0.05000
C1837       C  0.45719041  0.48932422  0.89655650    -0.19600
C1838       C  0.43846184  0.47193066  0.89982816    -0.11900
C1839       C  0.44491472  0.44875855  0.90961185     0.13800
C1840       C  0.46950602  0.44406428  0.91637961    -0.22400
C1841       C  0.50115321  0.50333533  0.89813955    -0.05400
H1842       H  0.45270227  0.50697373  0.88882775     0.15300
C1843       C  0.42621422  0.42889839  0.91324674    -0.15600
H1844       H  0.47450830  0.42655488  0.92417264     0.09600
H1845       H  0.55764054  0.42530300  0.87294344     0.07500
H1846       H  0.57245932  0.40666781  0.89457659     0.08700
H1847       H  0.58477860  0.43670730  0.88670328     0.07700
H1848       H  0.49084287  0.46568848  0.96720405     0.02600
H1849       H  0.49974826  0.49465294  0.95440556     0.03100
H1850       H  0.51684876  0.48194526  0.97958026     0.06600
H1851       H  0.49325735  0.51999825  0.88959942     0.05600
H1852       H  0.51510745  0.49560472  0.88540297    -0.00200
H1853       H  0.51036551  0.50894304  0.91556870     0.01300
H1854       H  0.41779564  0.42371089  0.89525902     0.04900
H1855       H  0.41179155  0.43534150  0.92615944     0.06900
H1856       H  0.43463256  0.41215685  0.92113164     0.07700
C1857       C  0.61029414  0.41332499  0.00927198    -0.21900
C1858       C  0.58748899  0.40936334  0.02026082     0.10100
C1859       C  0.56600417  0.41182899  0.00606673     0.10500
C1860       C  0.56763343  0.41952136  0.98167211    -0.16800
C1861       C  0.59007238  0.42744516  0.97116697    -0.27200
C1862       C  0.61205343  0.42187602  0.98484221     0.18800
C1863       C  0.58583034  0.40383298  0.04693848     0.12800
C1864       C  0.54104805  0.40699050  0.01690302    -0.11600
H1865       H  0.55081964  0.41925241  0.97114820     0.13100
C1866       C  0.63753034  0.42618533  0.97488623    -0.22400
H1867       H  0.62677715  0.41049424  0.02018085     0.08700
C1868       C  0.58408943  0.37964205  0.05552031     0.05000
C1869       C  0.57728272  0.37556721  0.08013279    -0.19600
C1870       C  0.57214828  0.39520266  0.09628418    -0.11900
C1871       C  0.57607885  0.41941715  0.08811362     0.13800
C1872       C  0.58250584  0.42338184  0.06348274    -0.22400
C1873       C  0.58864693  0.35824296  0.03843916    -0.05400
H1874       H  0.57470271  0.35699847  0.08638614     0.15300
C1875       C  0.57397468  0.44152787  0.10482417    -0.15600
H1876       H  0.58422785  0.44197298  0.05690647     0.09600
H1877       H  0.64167296  0.41288292  0.95994280     0.07500
H1878       H  0.65188707  0.42357648  0.98925897     0.08700
H1879       H  0.63942114  0.44509002  0.96804210     0.07700
H1880       H  0.53785042  0.41952252  0.03280212     0.02600
H1881       H  0.53999535  0.38779643  0.02320756     0.03100
H1882       H  0.52600176  0.40997750  0.00333267     0.06600
H1883       H  0.58652595  0.34053256  0.04800091     0.05600
H1884       H  0.60764025  0.35919821  0.03119498    -0.00200
H1885       H  0.57546514  0.35863153  0.02275905     0.01300
H1886       H  0.59125628  0.45222391  0.10404916     0.04900
H1887       H  0.57118451  0.43681965  0.12438725     0.06900
H1888       H  0.55851474  0.45326401  0.09856233     0.07700
C1889       C  0.62110473  0.38364442  0.91279156    -0.21900
C1890       C  0.63883044  0.39433433  0.89787046     0.10100
C1891       C  0.63974640  0.42001961  0.89692116     0.10500
C1892       C  0.62629638  0.43403757  0.91406757    -0.16800
C1893       C  0.60696804  0.42403584  0.92832119    -0.27200
C1894       C  0.60445078  0.39778350  0.92681365     0.18800
C1895       C  0.65522527  0.37827168  0.88256230     0.12800
C1896       C  0.65255981  0.43285388  0.87610039    -0.11600
H1897       H  0.63103336  0.45307966  0.91515479     0.13100
C1898       C  0.58420653  0.38375645  0.93920070    -0.22400
H1899       H  0.61984190  0.36385999  0.91296894     0.08700
C1900       C  0.68102883  0.37903960  0.88452680     0.05000
C1901       C  0.69538510  0.36538057  0.86784612    -0.19600
C1902       C  0.68519928  0.34779698  0.85111777    -0.11900
C1903       C  0.65897480  0.34477694  0.85224360     0.13800
C1904       C  0.64468309  0.36071037  0.86687411    -0.22400
C1905       C  0.69358922  0.39177080  0.90603470    -0.05400
H1906       H  0.71501634  0.36727282  0.86973981     0.15300
C1907       C  0.64450714  0.32552823  0.83834449    -0.15600
H1908       H  0.62481363  0.35909111  0.86632799     0.09600
H1909       H  0.58877175  0.38089409  0.95887940     0.07500
H1910       H  0.58188091  0.36526149  0.93084295     0.08700
H1911       H  0.56628673  0.39316334  0.93705432     0.07700
H1912       H  0.64422553  0.42681854  0.85833038     0.02600
H1913       H  0.67241998  0.42880152  0.87542746     0.03100
H1914       H  0.65037173  0.45303057  0.87748552     0.06600
H1915       H  0.71385323  0.38941520  0.90547369     0.05600
H1916       H  0.68702598  0.38371387  0.92346614    -0.00200
H1917       H  0.68977065  0.41160540  0.90668883     0.01300
H1918       H  0.63567258  0.31308391  0.85163918     0.04900
H1919       H  0.65536437  0.31441382  0.82556298     0.06900
H1920       H  0.62994013  0.33445220  0.82713395     0.07700
C1921       C  0.81587221  0.75553052  0.37490840    -0.21900
C1922       C  0.82241685  0.77409022  0.35884746     0.10100
C1923       C  0.83292455  0.76790766  0.33608490     0.10500
C1924       C  0.83593291  0.74318831  0.32949671    -0.16800
C1925       C  0.82922507  0.72367201  0.34528861    -0.27200
C1926       C  0.81925468  0.73068803  0.36882664     0.18800
C1927       C  0.81547488  0.79972134  0.36501124     0.12800
C1928       C  0.83998706  0.78752068  0.31816299    -0.11600
H1929       H  0.84182708  0.73984402  0.31094135     0.13100
C1930       C  0.81215147  0.71298930  0.38866724    -0.22400
H1931       H  0.80767879  0.76053438  0.39242761     0.08700
C1932       C  0.79210126  0.80881937  0.35856120     0.05000
C1933       C  0.78616164  0.83325445  0.36395471    -0.19600
C1934       C  0.80283470  0.84901276  0.37611940    -0.11900
C1935       C  0.82615379  0.83952144  0.38324680     0.13800
C1936       C  0.83221129  0.81504461  0.37734887    -0.22400
C1937       C  0.77334701  0.79263654  0.34598735    -0.05400
H1938       H  0.76816562  0.83999060  0.35865470     0.15300
C1939       C  0.84467574  0.85472469  0.39728456    -0.15600
H1940       H  0.85004614  0.80774150  0.38246188     0.09600
H1941       H  0.79186837  0.71287993  0.39067316     0.07500
H1942       H  0.82051423  0.71881415  0.40650414     0.08700
H1943       H  0.81874862  0.69425134  0.38543138     0.07700
H1944       H  0.85400409  0.79966759  0.32675081     0.02600
H1945       H  0.82359703  0.79857022  0.31313258     0.03100
H1946       H  0.84781621  0.77971054  0.30093542     0.06600
H1947       H  0.75587972  0.80254759  0.34233967     0.05600
H1948       H  0.76917590  0.77677575  0.35783316    -0.00200
H1949       H  0.78059246  0.78588531  0.32809686     0.01300
H1950       H  0.86162568  0.84416293  0.40151972     0.04900
H1951       H  0.83673026  0.86096236  0.41507045     0.06900
H1952       H  0.85007392  0.87074464  0.38619962     0.07700
C1953       C  0.83384154  0.68969871  0.26392973    -0.21900
C1954       C  0.85582021  0.70205942  0.25996578     0.10100
C1955       C  0.87163043  0.70663422  0.28002966     0.10500
C1956       C  0.86360282  0.70159897  0.30396680    -0.16800
C1957       C  0.83940832  0.69336590  0.30869929    -0.27200
C1958       C  0.82640667  0.68332797  0.28775391     0.18800
C1959       C  0.86166781  0.71027533  0.23472703     0.12800
C1960       C  0.89671542  0.71744369  0.27626595    -0.11600
H1961       H  0.87549165  0.70636420  0.31905576     0.13100
C1962       C  0.80640942  0.66426930  0.28842368    -0.22400
H1963       H  0.82273095  0.68427284  0.24815077     0.08700
C1964       C  0.86972866  0.69391380  0.21622067     0.05000
C1965       C  0.87384067  0.70261057  0.19234123    -0.19600
C1966       C  0.86993981  0.72732796  0.18640857    -0.11900
C1967       C  0.86229549  0.74382898  0.20534541     0.13800
C1968       C  0.85827192  0.73499155  0.22916962    -0.22400
C1969       C  0.87416089  0.66732540  0.22173295    -0.05400
H1970       H  0.87978338  0.68988238  0.17815609     0.15300
C1971       C  0.85847237  0.77078918  0.20099373    -0.15600
H1972       H  0.85213889  0.74739601  0.24360929     0.09600
H1973       H  0.78864720  0.67228705  0.28234021     0.07500
H1974       H  0.81106397  0.64912131  0.27544087     0.08700
H1975       H  0.80442912  0.65530360  0.30630877     0.07700
H1976       H  0.89498206  0.73574714  0.26777435     0.02600
H1977       H  0.90759624  0.70527110  0.26395455     0.03100
H1978       H  0.90692897  0.71961024  0.29392488     0.06600
H1979       H  0.88093007  0.65711476  0.20532094     0.05600
H1980       H  0.85682773  0.65865637  0.22771028    -0.00200
H1981       H  0.88813640  0.66568784  0.23662504     0.01300
H1982       H  0.85367872  0.78081816  0.21821983     0.04900
H1983       H  0.84311011  0.77359905  0.18776936     0.06900
H1984       H  0.87559991  0.77895347  0.19380530     0.07700
C1985       C  0.75864255  0.69057072  0.32416044    -0.21900
C1986       C  0.75276349  0.66955408  0.33706541     0.10100
C1987       C  0.77070267  0.65851739  0.35196306     0.10500
C1988       C  0.79464218  0.66812894  0.35262835    -0.16800
C1989       C  0.80186221  0.68818200  0.33780969    -0.27200
C1990       C  0.78241179  0.70046446  0.32460397     0.18800
C1991       C  0.72803376  0.65886183  0.33293957     0.12800
C1992       C  0.76455143  0.63649836  0.36713842    -0.11600
H1993       H  0.80749342  0.65940385  0.36484888     0.13100
C1994       C  0.78557411  0.72398678  0.31059134    -0.22400
H1995       H  0.74432448  0.69915970  0.31323191     0.08700
C1996       C  0.70663269  0.66982885  0.34270157     0.05000
C1997       C  0.68343992  0.66225229  0.33394665    -0.19600
C1998       C  0.68133606  0.64416126  0.31546434    -0.11900
C1999       C  0.70276827  0.63199667  0.30710260     0.13800
C2000       C  0.72583518  0.63952713  0.31595357    -0.22400
C2001       C  0.70838317  0.68973565  0.36202642    -0.05400
H2002       H  0.66701554  0.67129553  0.34066210     0.15300
C2003       C  0.70147463  0.61099023  0.28890384    -0.15600
H2004       H  0.74235751  0.63108046  0.30869444     0.09600
H2005       H  0.76900699  0.72866634  0.29952451     0.07500
H2006       H  0.78809124  0.73938743  0.32374003     0.08700
H2007       H  0.80093512  0.72293314  0.29745523     0.07700
H2008       H  0.75860967  0.62120557  0.35489526     0.02600
H2009       H  0.74946306  0.64116746  0.38004044     0.03100
H2010       H  0.78057155  0.63011968  0.37812823     0.06600
H2011       H  0.68993948  0.69611775  0.36796796     0.05600
H2012       H  0.71843870  0.70566961  0.35469105    -0.00200
H2013       H  0.71833431  0.68271040  0.37843014     0.01300
H2014       H  0.69468721  0.61743128  0.27078554     0.04900
H2015       H  0.68902360  0.59665386  0.29593770     0.06900
H2016       H  0.71979358  0.60250539  0.28590839     0.07700
C2017       C  0.95678350  0.62940267  0.49138265    -0.21900
C2018       C  0.95258238  0.61368424  0.51099393     0.10100
C2019       C  0.94334884  0.59018360  0.50617360     0.10500
C2020       C  0.94079126  0.58202686  0.48174775    -0.16800
C2021       C  0.94812829  0.59635400  0.46137943    -0.27200
C2022       C  0.95369533  0.62157908  0.46673245     0.18800
C2023       C  0.95948562  0.62137850  0.53640584     0.12800
C2024       C  0.93677242  0.57337803  0.52693758    -0.11600
H2025       H  0.93310856  0.56406343  0.47905078     0.13100
C2026       C  0.95685220  0.64068554  0.44709283    -0.22400
H2027       H  0.96280565  0.64786867  0.49546981     0.08700
C2028       C  0.98373129  0.61824246  0.54502806     0.05000
C2029       C  0.98928521  0.62334185  0.56980647    -0.19600
C2030       C  0.97111865  0.63118200  0.58655589    -0.11900
C2031       C  0.94678600  0.63478461  0.57761320     0.13800
C2032       C  0.94137315  0.62993886  0.55260174    -0.22400
C2033       C  0.00362853  0.60878969  0.52818084    -0.05400
H2034       H  0.00796715  0.62055029  0.57618812     0.15300
C2035       C  0.92628964  0.64334353  0.59412157    -0.15600
H2036       H  0.92277436  0.63216660  0.54574343     0.09600
H2037       H  0.96298483  0.65847073  0.45501633     0.07500
H2038       H  0.93898010  0.64425851  0.43790819     0.08700
H2039       H  0.97071439  0.63515625  0.43331225     0.07700
H2040       H  0.92209052  0.58187714  0.53828972     0.02600
H2041       H  0.95318596  0.57002740  0.53869505     0.03100
H2042       H  0.92998693  0.55541007  0.52006027     0.06600
H2043       H  0.02155652  0.60708693  0.53791210     0.05600
H2044       H  0.00601762  0.62150107  0.51258017    -0.00200
H2045       H  0.99853828  0.59044558  0.52082895     0.01300
H2046       H  0.90871568  0.64545764  0.58382910     0.04900
H2047       H  0.93096603  0.66139933  0.60241594     0.06900
H2048       H  0.92322344  0.62978530  0.60884378     0.07700
C2049       C  0.90297056  0.48037536  0.46669951    -0.21900
C2050       C  0.91776773  0.48250584  0.44586946     0.10100
C2051       C  0.92512003  0.46131769  0.43279437     0.10500
C2052       C  0.91808846  0.43825028  0.44142222    -0.16800
C2053       C  0.90445322  0.43601143  0.46316984    -0.27200
C2054       C  0.89622040  0.45740895  0.47558905     0.18800
C2055       C  0.92698267  0.50709493  0.43970215     0.12800
C2056       C  0.94092219  0.46307819  0.41023082    -0.11600
H2057       H  0.92429478  0.42188748  0.43183759     0.13100
C2058       C  0.88012734  0.45627863  0.49805257    -0.22400
H2059       H  0.89732666  0.49683478  0.47649293     0.08700
C2060       C  0.91353793  0.52325476  0.42492068     0.05000
C2061       C  0.92179766  0.54736255  0.42220130    -0.19600
C2062       C  0.94279771  0.55658019  0.43491454    -0.11900
C2063       C  0.95748958  0.53882077  0.44797343     0.13800
C2064       C  0.94893309  0.51478918  0.45048088    -0.22400
C2065       C  0.89006437  0.51516856  0.41248058    -0.05400
H2066       H  0.91099682  0.55899082  0.41041895     0.15300
C2067       C  0.98225391  0.54410922  0.45965317    -0.15600
H2068       H  0.95935989  0.50173113  0.46126885     0.09600
H2069       H  0.87393125  0.47476443  0.50407327     0.07500
H2070       H  0.89037540  0.44813974  0.51368870     0.08700
H2071       H  0.86352791  0.44520226  0.49384665     0.07700
H2072       H  0.95860778  0.47201618  0.41509855     0.02600
H2073       H  0.93134970  0.47404353  0.39598908     0.03100
H2074       H  0.94502836  0.44475739  0.40219404     0.06600
H2075       H  0.88159429  0.53005661  0.40152665     0.05600
H2076       H  0.87661233  0.50945551  0.42655842    -0.00200
H2077       H  0.89382805  0.49950948  0.39987112     0.01300
H2078       H  0.98906144  0.52861477  0.47089835     0.04900
H2079       H  0.98178792  0.56017390  0.47214866     0.06900
H2080       H  0.99604569  0.54658131  0.44506858     0.07700
C2081       C  0.00746458  0.57089885  0.39417072    -0.21900
C2082       C  0.02657607  0.57881760  0.40948531     0.10100
C2083       C  0.02095950  0.59136225  0.43142888     0.10500
C2084       C  0.99630040  0.59450142  0.43825466    -0.16800
C2085       C  0.97625662  0.58546814  0.42377260    -0.27200
C2086       C  0.98266981  0.57392727  0.40068224     0.18800
C2087       C  0.05222966  0.57165015  0.40335145     0.12800
C2088       C  0.04111688  0.60023790  0.44847299    -0.11600
H2089       H  0.99346465  0.60237913  0.45623258     0.13100
C2090       C  0.96453518  0.56356655  0.38219520    -0.22400
H2091       H  0.01202377  0.56139317  0.37713962     0.08700
C2092       C  0.06075754  0.54764584  0.40746845     0.05000
C2093       C  0.08517742  0.54157817  0.40197174    -0.19600
C2094       C  0.10166127  0.55890772  0.39259080    -0.11900
C2095       C  0.09291958  0.58302487  0.38827489     0.13800
C2096       C  0.06831505  0.58900903  0.39371153    -0.22400
C2097       C  0.04426505  0.52850645  0.41828361    -0.05400
H2098       H  0.09145895  0.52308731  0.40539747     0.15300
C2099       C  0.10914146  0.60261297  0.37793997    -0.15600
H2100       H  0.06155598  0.60739155  0.39055463     0.09600
H2101       H  0.94521971  0.56725939  0.38646560     0.07500
H2102       H  0.96707459  0.54344409  0.38066861     0.08700
H2103       H  0.96788668  0.57175495  0.36389149     0.07700
H2104       H  0.05272684  0.61369773  0.43882709     0.02600
H2105       H  0.05268762  0.58455191  0.45433150     0.03100
H2106       H  0.03371254  0.60928532  0.46528829     0.06600
H2107       H  0.05390220  0.51071708  0.42048039     0.05600
H2108       H  0.02809233  0.52540451  0.40610510    -0.00200
H2109       H  0.03799300  0.53467437  0.43674299     0.01300
H2110       H  0.11608775  0.59676232  0.35961120     0.04900
H2111       H  0.12477279  0.60621114  0.39069367     0.06900
H2112       H  0.09906190  0.62012945  0.37550431     0.07700
C2113       C  0.88896830  0.61724792  0.41023563    -0.21900
C2114       C  0.89742465  0.62944597  0.38953173     0.10100
C2115       C  0.92236433  0.62752197  0.38329242     0.10500
C2116       C  0.93830685  0.61337112  0.39782585    -0.16800
C2117       C  0.93030116  0.60028160  0.41877610    -0.27200
C2118       C  0.90480881  0.60336083  0.42532307     0.18800
C2119       C  0.88039571  0.64612154  0.37605323     0.12800
C2120       C  0.93227800  0.64062412  0.36120354    -0.11600
H2121       H  0.95741399  0.61346738  0.39279636     0.13100
C2122       C  0.89369058  0.59384902  0.44883305    -0.22400
H2123       H  0.86985105  0.61962765  0.41526158     0.08700
C2124       C  0.86362196  0.63759105  0.35823147     0.05000
C2125       C  0.84850914  0.65438787  0.34578168    -0.19600
C2126       C  0.84826350  0.67986161  0.35134266    -0.11900
C2127       C  0.86719560  0.68834550  0.36818624     0.13800
C2128       C  0.88201716  0.67119928  0.38063922    -0.22400
C2129       C  0.86179075  0.61070188  0.35222256    -0.05400
H2130       H  0.83621284  0.64732109  0.33176088     0.15300
C2131       C  0.87438956  0.71478852  0.37266052    -0.15600
H2132       H  0.89566097  0.67745748  0.39391829     0.09600
H2133       H  0.87338213  0.59588981  0.44888922     0.07500
H2134       H  0.90050402  0.60468920  0.46479754     0.08700
H2135       H  0.89741305  0.57423695  0.45165087     0.07700
H2136       H  0.92999904  0.66067758  0.36365310     0.02600
H2137       H  0.92219406  0.63458705  0.34437044     0.03100
H2138       H  0.95211798  0.63679754  0.35839990     0.06600
H2139       H  0.84784348  0.60697221  0.33764143     0.05600
H2140       H  0.85645256  0.60054118  0.36893960    -0.00200
H2141       H  0.87981964  0.60377775  0.34566087     0.01300
H2142       H  0.86189718  0.72377834  0.38590316     0.04900
H2143       H  0.87574731  0.72513963  0.35540033     0.06900
H2144       H  0.89293386  0.71626923  0.38122335     0.07700
C2145       C  0.00932083  0.08476722  0.09320078    -0.21900
C2146       C  0.00801767  0.07771305  0.11771864     0.10100
C2147       C  0.02962623  0.07584197  0.13164939     0.10500
C2148       C  0.05215206  0.08101960  0.12063286    -0.16800
C2149       C  0.05444408  0.08883162  0.09581912    -0.27200
C2150       C  0.03179632  0.09003815  0.08170462     0.18800
C2151       C  0.98375756  0.07088853  0.12774450     0.12800
C2152       C  0.02899494  0.06819197  0.15822275    -0.11600
H2153       H  0.06838669  0.07837561  0.13163995     0.13100
C2154       C  0.02944855  0.09552069  0.05454899    -0.22400
H2155       H  0.99227795  0.08560631  0.08277760     0.08700
C2156       C  0.96581685  0.08865421  0.13346672     0.05000
C2157       C  0.94220024  0.08114007  0.14026443    -0.19600
C2158       C  0.93611420  0.05621527  0.14171391    -0.11900
C2159       C  0.95472159  0.03840576  0.13722079     0.13800
C2160       C  0.97818153  0.04605946  0.13006019    -0.22400
C2161       C  0.97163420  0.11552614  0.13233394    -0.05400
H2162       H  0.92828014  0.09487732  0.14404997     0.15300
C2163       C  0.95006902  0.01129827  0.13898024    -0.15600
H2164       H  0.99216674  0.03258987  0.12563765     0.09600
H2165       H  0.03184201  0.11526328  0.05144782     0.07500
H2166       H  0.01078193  0.09145425  0.04722497     0.08700
H2167       H  0.04183729  0.08415555  0.04315789     0.07700
H2168       H  0.02143069  0.04944146  0.15959865     0.02600
H2169       H  0.01725855  0.08107595  0.16889589     0.03100
H2170       H  0.04759783  0.06816615  0.16674707     0.06600
H2171       H  0.95573088  0.12700486  0.13799719     0.05600
H2172       H  0.97660144  0.12053548  0.11325919    -0.00200
H2173       H  0.98728017  0.11976195  0.14488864     0.01300
H2174       H  0.93540839  0.00580775  0.12575065     0.04900
H2175       H  0.94462787  0.00666257  0.15803490     0.06900
H2176       H  0.96670513  0.00033380  0.13452385     0.07700
C2177       C  0.11362948  0.02568299  0.09878581    -0.21900
C2178       C  0.10149210  0.01127251  0.08122321     0.10100
C2179       C  0.08138586  0.02099034  0.06835049     0.10500
C2180       C  0.07525965  0.04558304  0.07177449    -0.16800
C2181       C  0.08911247  0.06170726  0.08708955    -0.27200
C2182       C  0.10676984  0.05020829  0.10327300     0.18800
C2183       C  0.10955272  0.98580605  0.07657390     0.12800
C2184       C  0.06662240  0.00548283  0.05053131    -0.11600
H2185       H  0.06008421  0.05264624  0.06107051     0.13100
C2186       C  0.11780681  0.06100884  0.12661124    -0.22400
H2187       H  0.12802903  0.01734409  0.10981648     0.08700
C2188       C  0.12558121  0.98020586  0.05703775     0.05000
C2189       C  0.12942336  0.95569303  0.05029358    -0.19600
C2190       C  0.11764661  0.93663431  0.06265638    -0.11900
C2191       C  0.10194406  0.94228880  0.08266182     0.13800
C2192       C  0.09843772  0.96687478  0.08958587    -0.22400
C2193       C  0.13815392  0.00016870  0.04299130    -0.05400
H2194       H  0.14142096  0.95136907  0.03497404     0.15300
C2195       C  0.08719659  0.92333410  0.09600199    -0.15600
H2196       H  0.08579531  0.97140503  0.10431514     0.09600
H2197       H  0.13770565  0.06439525  0.12398627     0.07500
H2198       H  0.11582576  0.04770573  0.14180077     0.08700
H2199       H  0.10890067  0.07760476  0.13372933     0.07700
H2200       H  0.05846855  0.98982197  0.06037982     0.02600
H2201       H  0.07864041  0.99843102  0.03560678     0.03100
H2202       H  0.05141850  0.01600714  0.04187907     0.06600
H2203       H  0.15006454  0.99262160  0.02819666     0.05600
H2204       H  0.14979913  0.01116112  0.05578621    -0.00200
H2205       H  0.12426862  0.01232010  0.03432545     0.01300
H2206       H  0.09292002  0.92299134  0.11566347     0.04900
H2207       H  0.08912417  0.90467373  0.08818574     0.06900
H2208       H  0.06738525  0.92818394  0.09495999     0.07700
C2209       C  0.07479281  0.13134190  0.02749021    -0.21900
C2210       C  0.07971410  0.11476357  0.00834783     0.10100
C2211       C  0.08962964  0.09174295  0.01416004     0.10500
C2212       C  0.09225403  0.08510958  0.03894740    -0.16800
C2213       C  0.08344340  0.09998840  0.05869086    -0.27200
C2214       C  0.07681119  0.12462102  0.05244941     0.18800
C2215       C  0.07263032  0.12116408  0.98260091     0.12800
C2216       C  0.09662721  0.07363057  0.99423790    -0.11600
H2217       H  0.10125967  0.06790366  0.04244476     0.13100
C2218       C  0.07021546  0.14392791  0.07138064    -0.22400
H2219       H  0.06828380  0.14946743  0.02276779     0.08700
C2220       C  0.04767677  0.12241142  0.97543147     0.05000
C2221       C  0.04155902  0.12711560  0.95083332    -0.19600
C2222       C  0.05962957  0.12987815  0.93268173    -0.11900
C2223       C  0.08472037  0.12865655  0.93986030     0.13800
C2224       C  0.09084753  0.12473598  0.96480943    -0.22400
C2225       C  0.02731804  0.11766897  0.99340984    -0.05400
H2226       H  0.02231044  0.12795486  0.94567313     0.15300
C2227       C  0.10514719  0.13049496  0.92141156    -0.15600
H2228       H  0.10995614  0.12383073  0.97039049     0.09600
H2229       H  0.06294278  0.16079996  0.06271205     0.07500
H2230       H  0.08684890  0.14948672  0.08184207     0.08700
H2231       H  0.05576718  0.13732915  0.08389767     0.07700
H2232       H  0.11167173  0.08113550  0.98294508     0.02600
H2233       H  0.08046534  0.06972390  0.98225734     0.03100
H2234       H  0.10313173  0.05601844  0.00198600     0.06600
H2235       H  0.00891657  0.11852277  0.98448214     0.05600
H2236       H  0.02766025  0.13156892  0.00842945    -0.00200
H2237       H  0.02960161  0.09912179  0.00119865     0.01300
H2238       H  0.12349827  0.12844457  0.93023338     0.04900
H2239       H  0.10455117  0.14863787  0.91245868     0.06900
H2240       H  0.10324887  0.11576916  0.90727610     0.07700
C2241       C  0.26480628  0.19197238  0.20788601    -0.21900
C2242       C  0.27010891  0.17027163  0.19543184     0.10100
C2243       C  0.25237091  0.16012008  0.17950587     0.10500
C2244       C  0.22918332  0.17147234  0.17720909    -0.16800
C2245       C  0.22223675  0.19217742  0.19172702    -0.27200
C2246       C  0.24176488  0.20346675  0.20599960     0.18800
C2247       C  0.29469733  0.15900896  0.19950232     0.12800
C2248       C  0.25800381  0.13722254  0.16493066    -0.11600
H2249       H  0.21673959  0.16376370  0.16370861     0.13100
C2250       C  0.23945081  0.22745106  0.21988249    -0.22400
H2251       H  0.27910647  0.19996827  0.21942833     0.08700
C2252       C  0.31580374  0.16793468  0.18767161     0.05000
C2253       C  0.33914767  0.15945190  0.19489687    -0.19600
C2254       C  0.34195817  0.14291617  0.21433950    -0.11900
C2255       C  0.32066037  0.13303398  0.22534304     0.13800
C2256       C  0.29730508  0.14117284  0.21768692    -0.22400
C2257       C  0.31370309  0.18708537  0.16804041    -0.05400
H2258       H  0.35535809  0.16696735  0.18634862     0.15300
C2259       C  0.32231606  0.11387376  0.24506548    -0.15600
H2260       H  0.28100434  0.13436822  0.22664200     0.09600
H2261       H  0.25666737  0.23245630  0.22978930     0.07500
H2262       H  0.22541719  0.22634076  0.23426581     0.08700
H2263       H  0.23601206  0.24264651  0.20706183     0.07700
H2264       H  0.26236742  0.12205834  0.17769267     0.02600
H2265       H  0.27402217  0.14039287  0.15284677     0.03100
H2266       H  0.24222549  0.13150011  0.15316731     0.06600
H2267       H  0.33192980  0.19188821  0.16044041     0.05600
H2268       H  0.30536001  0.20399709  0.17585468    -0.00200
H2269       H  0.30198638  0.18017766  0.15268108     0.01300
H2270       H  0.33092483  0.12159677  0.26199815     0.04900
H2271       H  0.33328853  0.09804695  0.23828926     0.06900
H2272       H  0.30387908  0.10703407  0.25020642     0.07700
C2273       C  0.15294306  0.19271888  0.31009419    -0.21900
C2274       C  0.16306296  0.20988244  0.29414263     0.10100
C2275       C  0.16796790  0.23376337  0.30278827     0.10500
C2276       C  0.16328403  0.23977338  0.32739869    -0.16800
C2277       C  0.15349919  0.22263690  0.34380188    -0.27200
C2278       C  0.14782733  0.19881905  0.33480909     0.18800
C2279       C  0.16867251  0.20275395  0.26840367     0.12800
C2280       C  0.17828452  0.25297266  0.28610235    -0.11600
H2281       H  0.16741012  0.25815588  0.33379362     0.13100
C2282       C  0.13635138  0.17974500  0.35083182    -0.22400
H2283       H  0.14902355  0.17449963  0.30311166     0.08700
C2284       C  0.19052627  0.19056301  0.26228114     0.05000
C2285       C  0.19711171  0.18836871  0.23745627    -0.19600
C2286       C  0.18337025  0.19976088  0.21831177    -0.11900
C2287       C  0.15875063  0.20680379  0.22467372     0.13800
C2288       C  0.15236412  0.20933469  0.24966798    -0.22400
C2289       C  0.20725394  0.18045254  0.28196771    -0.05400
H2290       H  0.21366722  0.17820826  0.23359657     0.15300
C2291       C  0.13886509  0.21217172  0.20603254    -0.15600
H2292       H  0.13472115  0.21704819  0.25471919     0.09600
H2293       H  0.13307191  0.16236678  0.34055416     0.07500
H2294       H  0.11833216  0.18643688  0.35765871     0.08700
H2295       H  0.14869550  0.17561392  0.36661152     0.07700
H2296       H  0.16519896  0.25640237  0.27076078     0.02600
H2297       H  0.19616365  0.24668183  0.27858430     0.03100
H2298       H  0.18135354  0.27062099  0.29596594     0.06600
H2299       H  0.22380668  0.17151657  0.27402624     0.05600
H2300       H  0.19726601  0.16660989  0.29281109    -0.00200
H2301       H  0.21345672  0.19545559  0.29445009     0.01300
H2302       H  0.12152925  0.21819214  0.21494167     0.04900
H2303       H  0.13434120  0.19542074  0.19530542     0.06900
H2304       H  0.14437774  0.22702499  0.19380731     0.07700
C2305       C  0.23825512  0.30612762  0.15367801    -0.21900
C2306       C  0.21411779  0.29869647  0.14894939     0.10100
C2307       C  0.19731654  0.31517673  0.13822479     0.10500
C2308       C  0.20492068  0.33916245  0.13318362    -0.16800
C2309       C  0.22881731  0.34717118  0.13916016    -0.27200
C2310       C  0.24589365  0.33008633  0.14901278     0.18800
C2311       C  0.20650614  0.27456754  0.15832651     0.12800
C2312       C  0.17135468  0.30749102  0.13244439    -0.11600
H2313       H  0.19186091  0.35192720  0.12533197     0.13100
C2314       C  0.27223450  0.33665683  0.15471722    -0.22400
H2315       H  0.25096451  0.29325291  0.16194764     0.08700
C2316       C  0.21315871  0.25262367  0.14659079     0.05000
C2317       C  0.20889409  0.23042296  0.15843695    -0.19600
C2318       C  0.19739233  0.22892495  0.18185855    -0.11900
C2319       C  0.19106508  0.25192945  0.19372750     0.13800
C2320       C  0.19533767  0.27393972  0.18129351    -0.22400
C2321       C  0.22438272  0.25262053  0.12131425    -0.05400
H2322       H  0.21403515  0.21370781  0.14884413     0.15300
C2323       C  0.18172885  0.25559955  0.21967343    -0.15600
H2324       H  0.19083606  0.29128472  0.19010986     0.09600
H2325       H  0.28307916  0.32052699  0.16077014     0.07500
H2326       H  0.27302688  0.35039349  0.16989555     0.08700
H2327       H  0.28112811  0.34397327  0.13800657     0.07700
H2328       H  0.16189361  0.30222762  0.14962883     0.02600
H2329       H  0.17154223  0.29160504  0.11952234     0.03100
H2330       H  0.16064756  0.32247237  0.12377338     0.06600
H2331       H  0.22805888  0.23376771  0.11441661     0.05600
H2332       H  0.24203628  0.26270170  0.12176879    -0.00200
H2333       H  0.21160048  0.26161767  0.10817424     0.01300
H2334       H  0.18703105  0.27384165  0.22718034     0.04900
H2335       H  0.18982885  0.24288660  0.23291718     0.06900
H2336       H  0.16142012  0.25524946  0.22000280     0.07700
C2337       C  0.14866648  0.17640400  0.14011080    -0.21900
C2338       C  0.14701739  0.15212259  0.14721375     0.10100
C2339       C  0.16009808  0.14432820  0.16804366     0.10500
C2340       C  0.17453719  0.16120331  0.18140636    -0.16800
C2341       C  0.17711954  0.18613083  0.17450749    -0.27200
C2342       C  0.16235335  0.19386681  0.15355366     0.18800
C2343       C  0.13055457  0.13565634  0.13271571     0.12800
C2344       C  0.15890163  0.11809218  0.17607210    -0.11600
H2345       H  0.18450572  0.15464837  0.19737449     0.13100
C2346       C  0.15782129  0.21969754  0.14452562    -0.22400
H2347       H  0.13804573  0.18202343  0.12412992     0.08700
C2348       C  0.10505351  0.13555972  0.13651244     0.05000
C2349       C  0.08987961  0.12145295  0.12096270    -0.19600
C2350       C  0.09930058  0.10656153  0.10151914    -0.11900
C2351       C  0.12525038  0.10826394  0.09704532     0.13800
C2352       C  0.14027965  0.12223466  0.11304767    -0.22400
C2353       C  0.09374706  0.15063182  0.15695101    -0.05400
H2354       H  0.07038683  0.12303408  0.12386368     0.15300
C2355       C  0.13784771  0.09624426  0.07531758    -0.15600
H2356       H  0.15985522  0.12338334  0.10976281     0.09600
H2357       H  0.13829826  0.22188854  0.13877657     0.07500
H2358       H  0.16925712  0.22317959  0.12809385     0.08700
H2359       H  0.16006508  0.23438488  0.15822383     0.07700
H2360       H  0.16567309  0.10591780  0.16106239     0.02600
H2361       H  0.13962857  0.11321538  0.18034742     0.03100
H2362       H  0.17033868  0.11482180  0.19274247     0.06600
H2363       H  0.07350161  0.14833972  0.15768809     0.05600
H2364       H  0.09763923  0.17031433  0.15413369    -0.00200
H2365       H  0.10157784  0.14495989  0.17495088     0.01300
H2366       H  0.13214837  0.10534361  0.05808160     0.04900
H2367       H  0.13409433  0.07643688  0.07415235     0.06900
H2368       H  0.15813302  0.09812085  0.07646856     0.07700
loop_ 
_geom_bond_atom_site_label_1 
_geom_bond_atom_site_label_2 
_geom_bond_distance 
_geom_bond_site_symmetry_2 
_ccdc_geom_bond_type 
C1         C2245   1.600       .  S
C1         C2286   1.580       .  S
C1         C2318   1.569       .  S
C1         C2341   1.589       .  S
C2         C2149   1.588       .  S
C2         C2181   1.583       .  S
C2         C2213   1.581       .  S
C2         C2350   1.574       .  S
C3         C2021   1.582       .  S
C3         C2062   1.585       .  S
C3         C2085   1.586       .  S
C3         C2117   1.585       .  S
C4         C1925   1.578       .  S
C4         C1957   1.583       .  S
C4         C1989   1.582       .  S
C4         C2126   1.586       .  S
C5         C1797   1.597       .  S
C5         C1829   1.590       .  S
C5         C1861   1.578       .  S
C5         C1893   1.589       .  S
C6         C1701   1.591       .  S
C6         C1733   1.582       .  S
C6         C1774   1.589       .  S
C6         C1902   1.587       .  S
C7         C1573   1.576       .  S
C7         C1605   1.598       .  S
C7         C1637   1.584       .  S
C7         C1669   1.587       .  S
C8         C1477   1.588       .  S
C8         C1518   1.589       .  S
C8         C1541   1.576       .  S
C8         C1678   1.577       .  S
O9           C12   1.266       .  A
O9          Cd14   2.462       .  S
C10          O19   1.262       .  A
C10          O15   1.266       .  A
C10        C1445   1.488       .  S
O11          C17   1.270       .  A
O11         Cd14   2.539       .  S
C12          O20   1.268       .  A
C12        C1870   1.487       .  S
C13          O18   1.266       .  A
C13          O16   1.263       .  A
C13        C1413   1.493       .  S
Cd14         O21   2.456       .  S
Cd14         O20   2.511       .  S
Cd14         O19   2.453       .  S
Cd14         O15   2.487       .  S
Cd14         O18   2.521       .  S
Cd14         O16   2.502       .  S
C17          O21   1.261       .  A
C17        C1381   1.504       .  S
O22          C25   1.266       .  A
O22         Cd27   2.459       .  S
C23          O32   1.268       .  A
C23          O28   1.263       .  A
C23        C2309   1.490       .  S
O24          C30   1.266       .  A
O24         Cd27   2.512       .  S
C25          O33   1.264       .  A
C25        C1454   1.489       .  S
C26          O31   1.264       .  A
C26          O29   1.264       .  A
C26        C1358   1.493       .  S
Cd27         O34   2.464       .  S
Cd27         O33   2.454       .  S
Cd27         O32   2.501       .  S
Cd27         O28   2.445       .  S
Cd27         O31   2.485       .  S
Cd27         O29   2.466       .  S
C30          O34   1.262       .  A
C30        C1317   1.491       .  S
O35          C38   1.266       .  A
O35         Cd40   2.448       .  S
C36          O45   1.269       .  A
C36          O41   1.265       .  A
C36        C2094   1.497       .  S
O37          C43   1.261       .  A
O37         Cd40   2.439       .  S
C38          O46   1.263       .  A
C38        C1285   1.482       .  S
C39          O44   1.264       .  A
C39          O42   1.265       .  A
C39        C1326   1.492       .  S
Cd40         O47   2.523       .  S
Cd40         O46   2.439       .  S
Cd40         O45   2.502       .  S
Cd40         O41   2.445       .  S
Cd40         O44   2.464       .  S
Cd40         O42   2.502       .  S
C43          O47   1.267       .  A
C43        C1253   1.489       .  S
O48          C51   1.263       .  A
O48         Cd53   2.400       .  S
C49          O58   1.264       .  A
C49          O54   1.265       .  A
C49        C1294   1.484       .  S
O50          C56   1.264       .  A
O50         Cd53   2.446       .  S
C51          O59   1.269       .  A
C51        C2277   1.490       .  S
C52          O57   1.261       .  A
C52          O55   1.267       .  A
C52        C1189   1.488       .  S
Cd53         O60   2.503       .  S
Cd53         O59   2.503       .  S
Cd53         O58   2.455       .  S
Cd53         O54   2.431       .  S
Cd53         O57   2.443       .  S
Cd53         O55   2.514       .  S
C56          O60   1.266       .  A
C56        C1221   1.492       .  S
O61          C64   1.264       .  A
O61         Cd66   2.464       .  S
C62          O71   1.265       .  A
C62          O67   1.265       .  A
C62        C1166   1.480       .  S
O63          C69   1.261       .  A
O63         Cd66   2.432       .  S
C64          O72   1.267       .  A
C64        C1646   1.489       .  S
C65          O70   1.268       .  A
C65          O68   1.259       .  A
C65        C1125   1.486       .  S
Cd66         O73   2.517       .  S
Cd66         O72   2.491       .  S
Cd66         O71   2.438       .  S
Cd66         O67   2.442       .  S
Cd66         O70   2.512       .  S
Cd66         O68   2.437       .  S
C69          O73   1.269       .  A
C69        C1198   1.490       .  S
O74          C77   1.263       .  A
O74         Cd79   2.444       .  S
C75          O84   1.264       .  A
C75          O80   1.263       .  A
C75        C1157   1.487       .  S
O76          C82   1.262       .  A
O76         Cd79   2.485       .  S
C77          O85   1.270       .  A
C77        C2254   1.486       .  S
C78          O83   1.269       .  A
C78          O81   1.265       .  A
C78        C1390   1.503       .  S
Cd79         O86   2.510       .  S
Cd79         O85   2.505       .  S
Cd79         O84   2.453       .  S
Cd79         O80   2.468       .  S
Cd79         O83   2.520       .  S
Cd79         O81   2.471       .  S
C82          O86   1.265       .  A
C82        C1102   1.500       .  S
O87          C90   1.262       .  A
O87         Cd92   2.431       .  S
C88          O97   1.270       .  A
C88          O93   1.264       .  A
C88        C1765   1.489       .  S
O89          C95   1.270       .  A
O89         Cd92   2.533       .  S
C90          O98   1.266       .  A
C90        C1070   1.487       .  S
C91          O96   1.263       .  A
C91          O94   1.267       .  A
C91        C1029   1.493       .  S
Cd92         O99   2.424       .  S
Cd92         O98   2.484       .  S
Cd92         O97   2.503       .  S
Cd92         O93   2.421       .  S
Cd92         O96   2.451       .  S
Cd92         O94   2.510       .  S
C95          O99   1.260       .  A
C95         C997   1.492       .  S
O100        C103   1.264       .  A
O100       Cd105   2.419       .  S
C101        O110   1.267       .  A
C101        O106   1.263       .  A
C101       C1061   1.487       .  S
O102        C108   1.267       .  A
O102       Cd105   2.544       .  S
C103        O111   1.270       .  A
C103       C2222   1.493       .  S
C104        O109   1.264       .  A
C104        O107   1.262       .  A
C104        C942   1.496       .  S
Cd105       O112   2.435       .  S
Cd105       O111   2.513       .  S
Cd105       O110   2.467   1_455  S
Cd105       O106   2.446   1_455  S
Cd105       O109   2.487       .  S
Cd105       O107   2.483       .  S
C108        O112   1.260       .  A
C108        C974   1.498       .  S
O113        C116   1.264       .  A
O113       Cd118   2.422       .  S
C114        O123   1.264       .  A
C114        O119   1.264       .  A
C114        C901   1.483       .  S
O115        C121   1.269       .  A
O115       Cd118   2.515       .  S
C116        O124   1.268       .  A
C116       C2053   1.479       .  S
C117        O122   1.263       .  A
C117        O120   1.265       .  A
C117       C1230   1.485       .  S
Cd118       O125   2.436       .  S
Cd118       O124   2.485       .  S
Cd118       O123   2.437       .  S
Cd118       O119   2.476       .  S
Cd118       O122   2.463       .  S
Cd118       O120   2.467       .  S
C121        O125   1.260       .  A
C121        C869   1.490       .  S
O126        C129   1.265       .  A
O126       Cd131   2.441       .  S
C127        O136   1.269       .  A
C127        O132   1.263       .  A
C127       C1742   1.493       .  S
O128        C134   1.271       .  A
O128       Cd131   2.532       .  S
C129        O137   1.266       .  A
C129        C910   1.480       .  S
C130        O135   1.267       .  A
C130        O133   1.264       .  A
C130        C837   1.499       .  S
Cd131       O138   2.421       .  S
Cd131       O137   2.451       .  S
Cd131       O136   2.520       .  S
Cd131       O132   2.413       .  S
Cd131       O135   2.505       .  S
Cd131       O133   2.464       .  S
C134        O138   1.260       .  A
C134        C965   1.491       .  S
O139        C142   1.261       .  A
O139       Cd144   2.430       .  S
C140        O149   1.266       .  A
C140        O145   1.263       .  A
C140        C805   1.476       .  S
O141        C147   1.260       .  A
O141       Cd144   2.430       .  S
C142        O150   1.270       .  A
C142       C1550   1.491       .  S
C143        O148   1.267       .  A
C143        O146   1.262       .  A
C143        C782   1.487       .  S
Cd144       O151   2.493       .  S
Cd144       O150   2.494       .  S
Cd144       O149   2.456       .  S
Cd144       O145   2.426       .  S
Cd144       O148   2.496       .  S
Cd144       O146   2.447       .  S
C147        O151   1.267       .  A
C147       C1262   1.487       .  S
O152        C155   1.264   1_455  A
O152       Cd157   2.435   1_455  S
C153        O162   1.264       .  A
C153        O158   1.263       .  A
C153        C814   1.479       .  S
O154        C160   1.263       .  A
O154       Cd157   2.430   1_455  S
C155        O163   1.270       .  A
C155       C2030   1.497       .  S
C156        O161   1.270       .  A
C156        O159   1.261       .  A
C156        C846   1.492       .  S
Cd157       O164   2.519       .  S
Cd157       O163   2.511       .  S
Cd157       O162   2.465   1_655  S
Cd157       O158   2.436   1_655  S
Cd157       O161   2.535       .  S
Cd157       O159   2.436       .  S
C160        O164   1.270   1_455  A
C160        C741   1.496       .  S
O165        C168   1.265       .  A
O165       Cd170   2.462       .  S
C166        O175   1.269       .  A
C166        O171   1.264       .  A
C166       C1509   1.477       .  S
O167        C173   1.269       .  A
O167       Cd170   2.525       .  S
C168        O176   1.263       .  A
C168        C709   1.483       .  S
C169        O174   1.264       .  A
C169        O172   1.264       .  A
C169        C933   1.494       .  S
Cd170       O177   2.430       .  S
Cd170       O176   2.440       .  S
Cd170       O175   2.486       .  S
Cd170       O171   2.430       .  S
Cd170       O174   2.463       .  S
Cd170       O172   2.486       .  S
C173        O177   1.261       .  A
C173        C750   1.489       .  S
O178        C181   1.264       .  A
O178       Cd183   2.425       .  S
C179        O188   1.263       .  A
C179        O184   1.265       .  A
C179        C718   1.475       .  S
O180        C186   1.263       .  A
O180       Cd183   2.481       .  S
C181        O189   1.269       .  A
C181       C2190   1.476       .  S
C182        O187   1.270       .  A
C182        O185   1.262       .  A
C182        C645   1.492       .  S
Cd183       O190   2.488       .  S
Cd183       O189   2.483       .  S
Cd183       O188   2.435   1_554  S
Cd183       O184   2.447   1_554  S
Cd183       O187   2.529       .  S
Cd183       O185   2.433       .  S
C186        O190   1.266       .  A
C186        C677   1.499       .  S
O191        C194   1.263       .  A
O191       Cd196   2.443       .  S
C192        O201   1.268       .  A
C192        O197   1.264       .  A
C192       C1838   1.496       .  S
O193        C199   1.268       .  A
O193       Cd196   2.507       .  S
C194        O202   1.266       .  A
C194        C613   1.477       .  S
C195        O200   1.263       .  A
C195        O198   1.263       .  A
C195        C773   1.494       .  S
Cd196       O203   2.441       .  S
Cd196       O202   2.464       .  S
Cd196       O201   2.506       .  S
Cd196       O197   2.446       .  S
Cd196       O200   2.489       .  S
Cd196       O198   2.471       .  S
C199        O203   1.261       .  A
C199       C1349   1.482       .  S
O204        C207   1.265       .  A
O204       Cd209   2.447       .  S
C205        O214   1.265       .  A
C205        O210   1.264       .  A
C205        C622   1.484       .  S
O206        C212   1.263       .  A
O206       Cd209   2.459       .  S
C207        O215   1.270       .  A
C207       C1486   1.499       .  S
C208        O213   1.267       .  A
C208        O211   1.262       .  A
C208        C686   1.491       .  S
Cd209       O216   2.512       .  S
Cd209       O215   2.514       .  S
Cd209       O214   2.464       .  S
Cd209       O210   2.437       .  S
Cd209       O213   2.531       .  S
Cd209       O211   2.459       .  S
C212        O216   1.267       .  A
C212        C581   1.499       .  S
O217        C220   1.265       .  A
O217       Cd222   2.428       .  S
C218        O227   1.264       .  A
C218        O223   1.264       .  A
C218        C558   1.486       .  S
O219        C225   1.265       .  A
O219       Cd222   2.489       .  S
C220        O228   1.269       .  A
C220       C1998   1.482       .  S
C221        O226   1.270       .  A
C221        O224   1.261       .  A
C221        C517   1.492       .  S
Cd222       O229   2.522       .  S
Cd222       O228   2.501       .  S
Cd222       O227   2.442       .  S
Cd222       O223   2.463       .  S
Cd222       O226   2.529       .  S
Cd222       O224   2.445       .  S
C225        O229   1.264       .  A
C225       C1422   1.503       .  S
O230        C233   1.266       .  A
O230       Cd235   2.445       .  S
C231        O240   1.264       .  A
C231        O236   1.264       .  A
C231        C549   1.487       .  S
O232        C238   1.268       .  A
O232       Cd235   2.508       .  S
C233        O241   1.268       .  A
C233       C1806   1.488       .  S
C234        O239   1.268       .  A
C234        O237   1.260       .  A
C234        C590   1.490       .  S
Cd235       O242   2.448   1_556  S
Cd235       O241   2.488       .  S
Cd235       O240   2.448   1_556  S
Cd235       O236   2.459   1_556  S
Cd235       O239   2.519       .  S
Cd235       O237   2.443       .  S
C238        O242   1.263   1_556  A
C238        C485   1.492   1_556  S
O243        C246   1.264       .  A
O243       Cd248   2.461       .  S
C244        O253   1.269       .  A
C244        O249   1.262       .  A
C244       C1710   1.486       .  S
O245        C251   1.265       .  A
O245       Cd248   2.455       .  S
C246        O254   1.263       .  A
C246        C462   1.484       .  S
C247        O252   1.265       .  A
C247        O250   1.262       .  A
C247       C1134   1.497       .  S
Cd248       O255   2.512       .  S
Cd248       O254   2.446       .  S
Cd248       O253   2.512       .  S
Cd248       O249   2.430       .  S
Cd248       O252   2.517       .  S
Cd248       O250   2.460       .  S
C251        O255   1.269       .  A
C251        C878   1.497       .  S
O256        C259   1.264       .  A
O256       Cd261   2.436       .  S
C257        O266   1.263       .  A
C257        O262   1.265       .  A
C257        C453   1.490       .  S
O258        C264   1.266   1_565  A
O258       Cd261   2.498       .  S
C259        O267   1.269       .  A
C259       C1614   1.490       .  S
C260        O265   1.265       .  A
C260        O263   1.263       .  A
C260        C430   1.479       .  S
Cd261       O268   2.458   1_565  S
Cd261       O267   2.501       .  S
Cd261       O266   2.464   1_565  S
Cd261       O262   2.465   1_565  S
Cd261       O265   2.503       .  S
Cd261       O263   2.469       .  S
C264        O268   1.263       .  A
C264       C1006   1.496       .  S
O269        C272   1.263       .  A
O269       Cd274   2.433       .  S
C270        O279   1.265       .  A
C270        O275   1.262       .  A
C270        C389   1.483       .  S
O271        C277   1.268       .  A
O271       Cd274   2.531       .  S
C272        O280   1.271       .  A
C272       C1966   1.492       .  S
C273        O278   1.265       .  A
C273        O276   1.263       .  A
C273        C494   1.495       .  S
Cd274       O281   2.449       .  S
Cd274       O280   2.489       .  S
Cd274       O279   2.473       .  S
Cd274       O275   2.442       .  S
Cd274       O278   2.498       .  S
Cd274       O276   2.491       .  S
C277        O281   1.262       .  A
C277        C654   1.500       .  S
O282        C285   1.262       .  A
O282       Cd287   2.446       .  S
C283        O292   1.266       .  A
C283        O288   1.264       .  A
C283        C398   1.485       .  S
O284        C290   1.262       .  A
O284       Cd287   2.459       .  S
C285        O293   1.269       .  A
C285       C2158   1.490       .  S
C286        O291   1.269       .  A
C286        O289   1.261       .  A
C286       C1038   1.491       .  S
Cd287       O294   2.517       .  S
Cd287       O293   2.486       .  S
Cd287       O292   2.440   1_545  S
Cd287       O288   2.450   1_545  S
Cd287       O291   2.529       .  S
Cd287       O289   2.448       .  S
C290        O294   1.266       .  A
C290        C366   1.497       .  S
O295        C298   1.265       .  A
O295       Cd300   2.453       .  S
C296        O305   1.265       .  A
C296        O301   1.262       .  A
C296        C325   1.473       .  S
O297        C303   1.263       .  A
O297       Cd300   2.509       .  S
C298        O306   1.271       .  A
C298       C1582   1.495       .  S
C299        O304   1.262       .  A
C299        O302   1.268       .  A
C299       C1093   1.491       .  S
Cd300       O307   2.490       .  S
Cd300       O306   2.512       .  S
Cd300       O305   2.470       .  S
Cd300       O301   2.427       .  S
Cd300       O304   2.459       .  S
Cd300       O302   2.518       .  S
C303        O307   1.262       .  A
C303        C526   1.500       .  S
O308        C311   1.265       .  A
O308       Cd313   2.447       .  S
C309        O318   1.266       .  A
C309        O314   1.264       .  A
C309        C334   1.484       .  S
O310        C316   1.260       .  A
O310       Cd313   2.447       .  S
C311        O319   1.268       .  A
C311       C1934   1.497       .  S
C312        O317   1.268       .  A
C312        O315   1.260       .  A
C312        C357   1.491       .  S
Cd313       O320   2.510       .  S
Cd313       O319   2.508       .  S
Cd313       O318   2.461       .  S
Cd313       O314   2.437       .  S
Cd313       O317   2.533       .  S
Cd313       O315   2.451       .  S
C316        O320   1.268       .  A
C316        C421   1.495       .  S
C321        C322   1.399       .  A
C321        C326   1.398       .  A
C321        H331   1.085       .  S
C322        C327   1.477       .  S
C322        C323   1.412       .  A
C323        C328   1.507       .  S
C323        C324   1.403       .  A
C324        C325   1.404       .  A
C324        H329   1.085       .  S
C325        C326   1.415       .  A
C326        C330   1.509       .  S
C327        C332   1.410       .  A
C327        C336   1.398       .  A
C328        H344   1.109       .  S
C328        H345   1.110       .  S
C328        H346   1.111       .  S
C330        H341   1.111       .  S
C330        H342   1.111       .  S
C330        H343   1.109       .  S
C332        C337   1.508       .  S
C332        C333   1.403       .  A
C333        C334   1.408       .  A
C333        H338   1.083       .  S
C334        C335   1.420       .  A
C335        C339   1.508       .  S
C335        C336   1.400       .  A
C336        H340   1.084       .  S
C337        H347   1.111       .  S
C337        H348   1.109       .  S
C337        H349   1.110       .  S
C339        H350   1.111       .  S
C339        H351   1.110       .  S
C339        H352   1.110       .  S
C353        C354   1.400       .  A
C353        C358   1.407   1_545  A
C353        H363   1.084       .  S
C354        C359   1.489       .  S
C354        C355   1.412   1_545  A
C355        C360   1.506       .  S
C355        C356   1.408       .  A
C356        C357   1.406       .  A
C356        H361   1.084       .  S
C357        C358   1.421       .  A
C358        C362   1.508   1_565  S
C359        C364   1.410       .  A
C359        C368   1.402       .  A
C360        H376   1.110       .  S
C360        H377   1.110       .  S
C360        H378   1.111       .  S
C362        H373   1.109   1_545  S
C362        H374   1.111       .  S
C362        H375   1.110       .  S
C364        C369   1.508   1_545  S
C364        C365   1.403       .  A
C365        C366   1.409       .  A
C365        H370   1.084       .  S
C366        C367   1.422       .  A
C367        C371   1.506       .  S
C367        C368   1.411       .  A
C368        H372   1.084       .  S
C369        H379   1.111       .  S
C369        H380   1.110       .  S
C369        H381   1.110       .  S
C371        H382   1.111       .  S
C371        H383   1.110       .  S
C371        H384   1.110       .  S
C385        C386   1.397       .  A
C385        C390   1.401       .  A
C385        H395   1.085       .  S
C386        C391   1.474       .  S
C386        C387   1.407       .  A
C387        C392   1.506       .  S
C387        C388   1.403       .  A
C388        C389   1.407       .  A
C388        H393   1.084       .  S
C389        C390   1.421       .  A
C390        C394   1.508       .  S
C391        C396   1.405       .  A
C391        C400   1.399       .  A
C392        H408   1.110       .  S
C392        H409   1.110       .  S
C392        H410   1.111       .  S
C394        H405   1.111       .  S
C394        H406   1.110       .  S
C394        H407   1.110       .  S
C396        C401   1.506       .  S
C396        C397   1.400       .  A
C397        C398   1.408       .  A
C397        H402   1.084       .  S
C398        C399   1.422       .  A
C399        C403   1.509       .  S
C399        C400   1.402       .  A
C400        H404   1.085       .  S
C401        H411   1.111       .  S
C401        H412   1.110       .  S
C401        H413   1.110       .  S
C403        H414   1.111       .  S
C403        H415   1.110       .  S
C403        H416   1.109       .  S
C417        C418   1.399       .  A
C417        C422   1.407       .  A
C417        H427   1.084       .  S
C418        C423   1.487       .  S
C418        C419   1.411       .  A
C419        C424   1.507       .  S
C419        C420   1.405       .  A
C420        C421   1.407       .  A
C420        H425   1.083       .  S
C421        C422   1.425       .  A
C422        C426   1.508       .  S
C423        C428   1.413       .  A
C423        C432   1.403       .  A
C424        H440   1.110       .  S
C424        H441   1.111       .  S
C424        H442   1.110   1_565  S
C426        H437   1.110       .  S
C426        H438   1.111       .  S
C426        H439   1.110       .  S
C428        C433   1.507       .  S
C428        C429   1.405       .  A
C429        C430   1.403       .  A
C429        H434   1.084       .  S
C430        C431   1.413       .  A
C431        C435   1.506       .  S
C431        C432   1.407       .  A
C432        H436   1.084       .  S
C433        H443   1.111       .  S
C433        H444   1.110       .  S
C433        H445   1.111       .  S
C435        H446   1.111       .  S
C435        H447   1.110       .  S
C435        H448   1.109       .  S
C449        C450   1.399       .  A
C449        C454   1.404       .  A
C449        H459   1.084       .  S
C450        C455   1.479       .  S
C450        C451   1.409       .  A
C451        C456   1.508       .  S
C451        C452   1.401       .  A
C452        C453   1.408       .  A
C452        H457   1.083       .  S
C453        C454   1.422       .  A
C454        C458   1.508       .  S
C455        C460   1.409       .  A
C455        C464   1.399       .  A
C456        H472   1.109       .  S
C456        H473   1.111       .  S
C456        H474   1.111       .  S
C458        H469   1.111       .  S
C458        H470   1.110       .  S
C458        H471   1.110       .  S
C460        C465   1.507       .  S
C460        C461   1.402       .  A
C461        C462   1.407       .  A
C461        H466   1.084       .  S
C462        C463   1.420       .  A
C463        C467   1.508       .  S
C463        C464   1.403       .  A
C464        H468   1.084       .  S
C465        H475   1.111       .  S
C465        H476   1.110       .  S
C465        H477   1.110       .  S
C467        H478   1.110       .  S
C467        H479   1.111       .  S
C467        H480   1.111       .  S
C481        C482   1.402       .  A
C481        C486   1.407       .  A
C481        H491   1.084       .  S
C482        C487   1.489       .  S
C482        C483   1.410       .  A
C483        C488   1.506       .  S
C483        C484   1.406       .  A
C484        C485   1.409       .  A
C484        H489   1.084       .  S
C485        C486   1.419       .  A
C486        C490   1.507       .  S
C487        C492   1.410       .  A
C487        C496   1.402       .  A
C488        H504   1.109       .  S
C488        H505   1.110       .  S
C488        H506   1.111       .  S
C490        H501   1.111       .  S
C490        H502   1.110       .  S
C490        H503   1.110   1_554  S
C492        C497   1.506   1_554  S
C492        C493   1.407       .  A
C493        C494   1.408       .  A
C493        H498   1.083       .  S
C494        C495   1.422       .  A
C495        C499   1.508       .  S
C495        C496   1.408       .  A
C496        H500   1.084       .  S
C497        H507   1.110       .  S
C497        H508   1.110       .  S
C497        H509   1.111       .  S
C499        H510   1.111       .  S
C499        H511   1.110       .  S
C499        H512   1.110       .  S
C513        C514   1.400       .  A
C513        C518   1.405       .  A
C513        H523   1.084       .  S
C514        C519   1.489       .  S
C514        C515   1.411       .  A
C515        C520   1.505       .  S
C515        C516   1.410       .  A
C516        C517   1.407       .  A
C516        H521   1.084       .  S
C517        C518   1.421       .  A
C518        C522   1.509       .  S
C519        C524   1.409       .  A
C519        C528   1.401       .  A
C520        H536   1.110       .  S
C520        H537   1.109       .  S
C520        H538   1.111       .  S
C522        H533   1.110       .  S
C522        H534   1.111       .  S
C522        H535   1.109       .  S
C524        C529   1.507       .  S
C524        C525   1.406       .  A
C525        C526   1.410       .  A
C525        H530   1.083       .  S
C526        C527   1.423       .  A
C527        C531   1.507       .  S
C527        C528   1.410       .  A
C528        H532   1.084       .  S
C529        H539   1.111       .  S
C529        H540   1.110       .  S
C529        H541   1.109       .  S
C531        H542   1.110       .  S
C531        H543   1.110       .  S
C531        H544   1.111       .  S
C545        C546   1.399       .  A
C545        C550   1.404       .  A
C545        H555   1.084       .  S
C546        C551   1.475       .  S
C546        C547   1.406       .  A
C547        C552   1.507       .  S
C547        C548   1.400       .  A
C548        C549   1.409       .  A
C548        H553   1.083       .  S
C549        C550   1.422       .  A
C550        C554   1.508       .  S
C551        C556   1.406       .  A
C551        C560   1.399       .  A
C552        H568   1.110       .  S
C552        H569   1.110       .  S
C552        H570   1.111       .  S
C554        H565   1.110       .  S
C554        H566   1.111       .  S
C554        H567   1.110       .  S
C556        C561   1.507       .  S
C556        C557   1.400       .  A
C557        C558   1.408       .  A
C557        H562   1.084       .  S
C558        C559   1.421       .  A
C559        C563   1.508       .  S
C559        C560   1.403       .  A
C560        H564   1.084       .  S
C561        H571   1.111       .  S
C561        H572   1.110       .  S
C561        H573   1.110       .  S
C563        H574   1.110       .  S
C563        H575   1.110       .  S
C563        H576   1.111       .  S
C577        C578   1.400       .  A
C577        C582   1.410       .  A
C577        H587   1.084       .  S
C578        C583   1.486       .  S
C578        C579   1.409       .  A
C579        C584   1.508       .  S
C579        C580   1.403       .  A
C580        C581   1.410       .  A
C580        H585   1.083       .  S
C581        C582   1.422       .  A
C582        C586   1.506       .  S
C583        C588   1.412       .  A
C583        C592   1.398       .  A
C584        H600   1.110       .  S
C584        H601   1.110       .  S
C584        H602   1.111       .  S
C586        H597   1.109       .  S
C586        H598   1.111       .  S
C586        H599   1.111       .  S
C588        C593   1.506       .  S
C588        C589   1.407       .  A
C589        C590   1.407       .  A
C589        H594   1.084       .  S
C590        C591   1.421       .  A
C591        C595   1.508   1_556  S
C591        C592   1.404       .  A
C592        H596   1.084       .  S
C593        H603   1.111       .  S
C593        H604   1.110       .  S
C593        H605   1.110       .  S
C595        H606   1.111       .  S
C595        H607   1.110   1_554  S
C595        H608   1.109       .  S
C609        C610   1.399       .  A
C609        C614   1.403       .  A
C609        H619   1.084       .  S
C610        C615   1.475       .  S
C610        C611   1.409       .  A
C611        C616   1.507       .  S
C611        C612   1.401       .  A
C612        C613   1.405       .  A
C612        H617   1.084       .  S
C613        C614   1.417       .  A
C614        C618   1.508       .  S
C615        C620   1.408       .  A
C615        C624   1.399       .  A
C616        H632   1.110       .  S
C616        H633   1.110       .  S
C616        H634   1.111       .  S
C618        H629   1.111       .  S
C618        H630   1.111       .  S
C618        H631   1.109       .  S
C620        C625   1.507       .  S
C620        C621   1.400       .  A
C621        C622   1.407       .  A
C621        H626   1.083       .  S
C622        C623   1.420       .  A
C623        C627   1.507       .  S
C623        C624   1.404       .  A
C624        H628   1.083       .  S
C625        H635   1.111       .  S
C625        H636   1.110       .  S
C625        H637   1.110       .  S
C627        H638   1.110       .  S
C627        H639   1.111       .  S
C627        H640   1.111       .  S
C641        C642   1.399       .  A
C641        C646   1.404       .  A
C641        H651   1.084       .  S
C642        C647   1.488       .  S
C642        C643   1.411       .  A
C643        C648   1.505       .  S
C643        C644   1.411       .  A
C644        C645   1.408       .  A
C644        H649   1.084       .  S
C645        C646   1.421       .  A
C646        C650   1.509       .  S
C647        C652   1.408   1_455  A
C647        C656   1.403   1_455  A
C648        H664   1.110       .  S
C648        H665   1.110       .  S
C648        H666   1.111       .  S
C650        H661   1.111       .  S
C650        H662   1.109       .  S
C650        H663   1.111       .  S
C652        C657   1.508   1_655  S
C652        C653   1.403       .  A
C653        C654   1.410       .  A
C653        H658   1.083       .  S
C654        C655   1.422       .  A
C655        C659   1.506       .  S
C655        C656   1.412       .  A
C656        H660   1.084   1_655  S
C657        H667   1.110   1_455  S
C657        H668   1.110       .  S
C657        H669   1.110       .  S
C659        H670   1.110       .  S
C659        H671   1.110       .  S
C659        H672   1.111       .  S
C673        C674   1.400       .  A
C673        C678   1.410       .  A
C673        H683   1.084       .  S
C674        C679   1.489   1_554  S
C674        C675   1.410       .  A
C675        C680   1.507   1_554  S
C675        C676   1.405       .  A
C676        C677   1.409       .  A
C676        H681   1.083       .  S
C677        C678   1.425       .  A
C678        C682   1.508       .  S
C679        C684   1.411       .  A
C679        C688   1.403   1_556  A
C680        H696   1.110   1_556  S
C680        H697   1.110       .  S
C680        H698   1.111   1_556  S
C682        H693   1.111       .  S
C682        H694   1.110       .  S
C682        H695   1.110       .  S
C684        C689   1.507       .  S
C684        C685   1.404       .  A
C685        C686   1.406       .  A
C685        H690   1.085       .  S
C686        C687   1.419       .  A
C687        C691   1.506   1_556  S
C687        C688   1.411   1_556  A
C688        H692   1.083       .  S
C689        H699   1.111       .  S
C689        H700   1.110       .  S
C689        H701   1.110       .  S
C691        H702   1.111       .  S
C691        H703   1.110       .  S
C691        H704   1.111   1_554  S
C705        C706   1.397       .  A
C705        C710   1.402       .  A
C705        H715   1.085       .  S
C706        C711   1.473       .  S
C706        C707   1.407       .  A
C707        C712   1.507       .  S
C707        C708   1.401       .  A
C708        C709   1.407       .  A
C708        H713   1.084       .  S
C709        C710   1.420       .  A
C710        C714   1.508       .  S
C711        C716   1.409       .  A
C711        C720   1.398       .  A
C712        H728   1.110       .  S
C712        H729   1.110       .  S
C712        H730   1.111       .  S
C714        H725   1.110       .  S
C714        H726   1.111       .  S
C714        H727   1.110       .  S
C716        C721   1.507       .  S
C716        C717   1.400       .  A
C717        C718   1.404       .  A
C717        H722   1.084       .  S
C718        C719   1.418       .  A
C719        C723   1.509       .  S
C719        C720   1.402       .  A
C720        H724   1.084       .  S
C721        H731   1.111       .  S
C721        H732   1.110       .  S
C721        H733   1.110       .  S
C723        H734   1.111       .  S
C723        H735   1.109       .  S
C723        H736   1.111       .  S
C737        C738   1.402       .  A
C737        C742   1.410       .  A
C737        H747   1.084       .  S
C738        C743   1.486       .  S
C738        C739   1.408       .  A
C739        C744   1.507       .  S
C739        C740   1.403       .  A
C740        C741   1.410       .  A
C740        H745   1.084       .  S
C741        C742   1.420       .  A
C742        C746   1.506   1_455  S
C743        C748   1.410       .  A
C743        C752   1.400       .  A
C744        H760   1.110       .  S
C744        H761   1.110       .  S
C744        H762   1.111       .  S
C746        H757   1.111       .  S
C746        H758   1.110   1_655  S
C746        H759   1.110       .  S
C748        C753   1.505       .  S
C748        C749   1.409       .  A
C749        C750   1.407       .  A
C749        H754   1.083       .  S
C750        C751   1.420       .  A
C751        C755   1.509       .  S
C751        C752   1.404       .  A
C752        H756   1.084       .  S
C753        H763   1.110       .  S
C753        H764   1.110   1_455  S
C753        H765   1.110       .  S
C755        H766   1.109       .  S
C755        H767   1.111       .  S
C755        H768   1.111       .  S
C769        C770   1.401       .  A
C769        C774   1.408       .  A
C769        H779   1.085       .  S
C770        C775   1.485       .  S
C770        C771   1.409       .  A
C771        C776   1.507       .  S
C771        C772   1.403       .  A
C772        C773   1.409       .  A
C772        H777   1.083       .  S
C773        C774   1.422       .  A
C774        C778   1.507       .  S
C775        C780   1.409       .  A
C775        C784   1.401       .  A
C776        H792   1.109       .  S
C776        H793   1.110       .  S
C776        H794   1.111       .  S
C778        H789   1.111       .  S
C778        H790   1.109       .  S
C778        H791   1.110       .  S
C780        C785   1.506       .  S
C780        C781   1.407       .  A
C781        C782   1.408       .  A
C781        H786   1.083       .  S
C782        C783   1.419       .  A
C783        C787   1.508       .  S
C783        C784   1.403       .  A
C784        H788   1.084       .  S
C785        H795   1.111       .  S
C785        H796   1.110       .  S
C785        H797   1.110       .  S
C787        H798   1.109       .  S
C787        H799   1.110       .  S
C787        H800   1.111       .  S
C801        C802   1.399       .  A
C801        C806   1.399       .  A
C801        H811   1.085       .  S
C802        C807   1.475       .  S
C802        C803   1.410       .  A
C803        C808   1.506       .  S
C803        C804   1.402       .  A
C804        C805   1.405       .  A
C804        H809   1.084       .  S
C805        C806   1.417       .  A
C806        C810   1.509       .  S
C807        C812   1.410       .  A
C807        C816   1.399       .  A
C808        H824   1.109       .  S
C808        H825   1.110       .  S
C808        H826   1.111       .  S
C810        H821   1.111       .  S
C810        H822   1.110       .  S
C810        H823   1.110       .  S
C812        C817   1.507       .  S
C812        C813   1.402       .  A
C813        C814   1.407       .  A
C813        H818   1.084       .  S
C814        C815   1.417       .  A
C815        C819   1.508       .  S
C815        C816   1.400       .  A
C816        H820   1.085       .  S
C817        H827   1.111       .  S
C817        H828   1.109       .  S
C817        H829   1.110       .  S
C819        H830   1.111       .  S
C819        H831   1.109       .  S
C819        H832   1.110       .  S
C833        C834   1.402       .  A
C833        C838   1.410       .  A
C833        H843   1.084       .  S
C834        C839   1.489       .  S
C834        C835   1.408       .  A
C835        C840   1.506       .  S
C835        C836   1.406       .  A
C836        C837   1.411       .  A
C836        H841   1.083       .  S
C837        C838   1.422       .  A
C838        C842   1.507       .  S
C839        C844   1.411       .  A
C839        C848   1.400       .  A
C840        H856   1.110       .  S
C840        H857   1.110       .  S
C840        H858   1.111       .  S
C842        H853   1.111   1_655  S
C842        H854   1.110       .  S
C842        H855   1.110       .  S
C844        C849   1.505       .  S
C844        C845   1.411       .  A
C845        C846   1.408       .  A
C845        H850   1.084       .  S
C846        C847   1.421       .  A
C847        C851   1.509       .  S
C847        C848   1.405       .  A
C848        H852   1.084       .  S
C849        H859   1.111       .  S
C849        H860   1.110       .  S
C849        H861   1.110       .  S
C851        H862   1.109       .  S
C851        H863   1.110       .  S
C851        H864   1.111       .  S
C865        C866   1.400       .  A
C865        C870   1.405       .  A
C865        H875   1.084       .  S
C866        C871   1.486       .  S
C866        C867   1.411       .  A
C867        C872   1.506       .  S
C867        C868   1.407       .  A
C868        C869   1.407       .  A
C868        H873   1.084       .  S
C869        C870   1.422       .  A
C870        C874   1.509       .  S
C871        C876   1.410       .  A
C871        C880   1.401       .  A
C872        H888   1.110       .  S
C872        H889   1.109       .  S
C872        H890   1.111       .  S
C874        H885   1.109       .  S
C874        H886   1.111       .  S
C874        H887   1.111       .  S
C876        C881   1.509       .  S
C876        C877   1.403       .  A
C877        C878   1.409       .  A
C877        H882   1.084       .  S
C878        C879   1.422       .  A
C879        C883   1.506       .  S
C879        C880   1.411       .  A
C880        H884   1.084       .  S
C881        H891   1.111       .  S
C881        H892   1.110       .  S
C881        H893   1.109       .  S
C883        H894   1.111       .  S
C883        H895   1.110       .  S
C883        H896   1.110       .  S
C897        C898   1.400       .  A
C897        C902   1.405       .  A
C897        H907   1.084       .  S
C898        C903   1.475       .  S
C898        C899   1.407       .  A
C899        C904   1.507       .  S
C899        C900   1.399       .  A
C900        C901   1.406       .  A
C900        H905   1.084       .  S
C901        C902   1.420       .  A
C902        C906   1.507       .  S
C903        C908   1.407       .  A
C903        C912   1.399       .  A
C904        H920   1.110       .  S
C904        H921   1.110       .  S
C904        H922   1.111       .  S
C906        H917   1.110       .  S
C906        H918   1.111       .  S
C906        H919   1.110       .  S
C908        C913   1.505       .  S
C908        C909   1.402       .  A
C909        C910   1.407       .  A
C909        H914   1.084       .  S
C910        C911   1.418       .  A
C911        C915   1.508       .  S
C911        C912   1.401       .  A
C912        H916   1.085       .  S
C913        H923   1.111       .  S
C913        H924   1.110       .  S
C913        H925   1.110       .  S
C915        H926   1.110       .  S
C915        H927   1.110       .  S
C915        H928   1.111       .  S
C929        C930   1.400       .  A
C929        C934   1.409   1_545  A
C929        H939   1.084       .  S
C930        C935   1.484       .  S
C930        C931   1.409   1_545  A
C931        C936   1.507       .  S
C931        C932   1.402       .  A
C932        C933   1.408       .  A
C932        H937   1.083       .  S
C933        C934   1.423       .  A
C934        C938   1.507       .  S
C935        C940   1.409       .  A
C935        C944   1.399       .  A
C936        H952   1.110   1_565  S
C936        H953   1.110       .  S
C936        H954   1.111       .  S
C938        H949   1.111       .  S
C938        H950   1.110       .  S
C938        H951   1.110       .  S
C940        C945   1.507       .  S
C940        C941   1.404       .  A
C941        C942   1.409       .  A
C941        H946   1.084       .  S
C942        C943   1.424       .  A
C943        C947   1.507       .  S
C943        C944   1.407       .  A
C944        H948   1.084       .  S
C945        H955   1.111       .  S
C945        H956   1.110       .  S
C945        H957   1.110       .  S
C947        H958   1.111       .  S
C947        H959   1.110       .  S
C947        H960   1.110       .  S
C961        C962   1.398       .  A
C961        C966   1.403       .  A
C961        H971   1.085       .  S
C962        C967   1.486   1_655  S
C962        C963   1.412       .  A
C963        C968   1.507       .  S
C963        C964   1.409       .  A
C964        C965   1.407       .  A
C964        H969   1.083       .  S
C965        C966   1.422       .  A
C966        C970   1.509       .  S
C967        C972   1.410   1_455  A
C967        C976   1.403       .  A
C968        H984   1.110   1_655  S
C968        H985   1.108       .  S
C968        H986   1.111       .  S
C970        H981   1.109       .  S
C970        H982   1.111       .  S
C970        H983   1.111       .  S
C972        C977   1.510       .  S
C972        C973   1.401       .  A
C973        C974   1.410   1_655  A
C973        H978   1.084       .  S
C974        C975   1.421       .  A
C975        C979   1.506       .  S
C975        C976   1.412       .  A
C976        H980   1.084       .  S
C977        H987   1.111       .  S
C977        H988   1.110       .  S
C977        H989   1.108       .  S
C979        H990   1.111       .  S
C979        H991   1.110       .  S
C979        H992   1.110       .  S
C993        C994   1.398       .  A
C993        C998   1.402       .  A
C993       H1003   1.085       .  S
C994        C999   1.485       .  S
C994        C995   1.411       .  A
C995       C1000   1.505       .  S
C995        C996   1.410       .  A
C996        C997   1.408       .  A
C996       H1001   1.085       .  S
C997        C998   1.422       .  A
C998       C1002   1.509       .  S
C999       C1004   1.408       .  A
C999       C1008   1.402       .  A
C1000      H1016   1.110   1_545  S
C1000      H1017   1.109       .  S
C1000      H1018   1.111   1_545  S
C1002      H1013   1.111       .  S
C1002      H1014   1.109       .  S
C1002      H1015   1.111       .  S
C1004      C1009   1.508       .  S
C1004      C1005   1.404       .  A
C1005      C1006   1.410       .  A
C1005      H1010   1.083       .  S
C1006      C1007   1.422       .  A
C1007      C1011   1.507   1_545  S
C1007      C1008   1.409       .  A
C1008      H1012   1.084       .  S
C1009      H1019   1.110       .  S
C1009      H1020   1.110       .  S
C1009      H1021   1.109       .  S
C1011      H1022   1.110       .  S
C1011      H1023   1.110       .  S
C1011      H1024   1.111       .  S
C1025      C1026   1.403       .  A
C1025      C1030   1.410   1_554  A
C1025      H1035   1.084       .  S
C1026      C1031   1.487       .  S
C1026      C1027   1.408       .  A
C1027      C1032   1.507       .  S
C1027      C1028   1.403   1_554  A
C1028      C1029   1.409       .  A
C1028      H1033   1.083       .  S
C1029      C1030   1.419       .  A
C1030      C1034   1.507       .  S
C1031      C1036   1.410       .  A
C1031      C1040   1.400       .  A
C1032      H1048   1.110       .  S
C1032      H1049   1.110       .  S
C1032      H1050   1.111       .  S
C1034      H1045   1.111       .  S
C1034      H1046   1.109       .  S
C1034      H1047   1.111       .  S
C1036      C1041   1.505       .  S
C1036      C1037   1.409       .  A
C1037      C1038   1.407       .  A
C1037      H1042   1.085       .  S
C1038      C1039   1.420       .  A
C1039      C1043   1.508       .  S
C1039      C1040   1.405       .  A
C1040      H1044   1.085       .  S
C1041      H1051   1.111       .  S
C1041      H1052   1.110       .  S
C1041      H1053   1.110       .  S
C1043      H1054   1.109       .  S
C1043      H1055   1.111       .  S
C1043      H1056   1.111       .  S
C1057      C1058   1.399       .  A
C1057      C1062   1.403       .  A
C1057      H1067   1.084       .  S
C1058      C1063   1.480       .  S
C1058      C1059   1.409       .  A
C1059      C1064   1.507       .  S
C1059      C1060   1.402       .  A
C1060      C1061   1.407       .  A
C1060      H1065   1.084       .  S
C1061      C1062   1.422       .  A
C1062      C1066   1.509       .  S
C1063      C1068   1.409       .  A
C1063      C1072   1.399       .  A
C1064      H1080   1.109       .  S
C1064      H1081   1.110       .  S
C1064      H1082   1.111       .  S
C1066      H1077   1.110       .  S
C1066      H1078   1.111       .  S
C1066      H1079   1.110       .  S
C1068      C1073   1.506       .  S
C1068      C1069   1.405       .  A
C1069      C1070   1.409       .  A
C1069      H1074   1.083       .  S
C1070      C1071   1.421       .  A
C1071      C1075   1.509       .  S
C1071      C1072   1.400       .  A
C1072      H1076   1.085       .  S
C1073      H1083   1.111       .  S
C1073      H1084   1.109       .  S
C1073      H1085   1.111       .  S
C1075      H1086   1.110       .  S
C1075      H1087   1.111       .  S
C1075      H1088   1.111       .  S
C1089      C1090   1.403       .  A
C1089      C1094   1.408       .  A
C1089      H1099   1.084       .  S
C1090      C1095   1.491   1_565  S
C1090      C1091   1.411       .  A
C1091      C1096   1.506       .  S
C1091      C1092   1.407       .  A
C1092      C1093   1.408       .  A
C1092      H1097   1.084       .  S
C1093      C1094   1.417       .  A
C1094      C1098   1.507       .  S
C1095      C1100   1.410       .  A
C1095      C1104   1.401       .  A
C1096      H1112   1.109       .  S
C1096      H1113   1.111       .  S
C1096      H1114   1.111       .  S
C1098      H1109   1.111       .  S
C1098      H1110   1.111       .  S
C1098      H1111   1.110       .  S
C1100      C1105   1.506   1_545  S
C1100      C1101   1.408       .  A
C1101      C1102   1.411       .  A
C1101      H1106   1.084       .  S
C1102      C1103   1.424       .  A
C1103      C1107   1.508       .  S
C1103      C1104   1.407       .  A
C1104      H1108   1.084       .  S
C1105      H1115   1.111   1_565  S
C1105      H1116   1.110       .  S
C1105      H1117   1.110       .  S
C1107      H1118   1.110       .  S
C1107      H1119   1.110       .  S
C1107      H1120   1.111       .  S
C1121      C1122   1.400       .  A
C1121      C1126   1.405       .  A
C1121      H1131   1.084       .  S
C1122      C1127   1.487       .  S
C1122      C1123   1.412       .  A
C1123      C1128   1.506       .  S
C1123      C1124   1.405       .  A
C1124      C1125   1.405       .  A
C1124      H1129   1.083       .  S
C1125      C1126   1.420       .  A
C1126      C1130   1.508       .  S
C1127      C1132   1.410       .  A
C1127      C1136   1.401       .  A
C1128      H1144   1.110       .  S
C1128      H1145   1.110       .  S
C1128      H1146   1.111       .  S
C1130      H1141   1.109       .  S
C1130      H1142   1.111       .  S
C1130      H1143   1.110       .  S
C1132      C1137   1.508       .  S
C1132      C1133   1.403       .  A
C1133      C1134   1.409       .  A
C1133      H1138   1.084       .  S
C1134      C1135   1.422       .  A
C1135      C1139   1.506       .  S
C1135      C1136   1.410       .  A
C1136      H1140   1.084       .  S
C1137      H1147   1.111       .  S
C1137      H1148   1.110       .  S
C1137      H1149   1.110       .  S
C1139      H1150   1.111       .  S
C1139      H1151   1.110       .  S
C1139      H1152   1.110       .  S
C1153      C1154   1.399       .  A
C1153      C1158   1.403       .  A
C1153      H1163   1.084       .  S
C1154      C1159   1.475       .  S
C1154      C1155   1.406       .  A
C1155      C1160   1.507       .  S
C1155      C1156   1.400       .  A
C1156      C1157   1.408       .  A
C1156      H1161   1.083       .  S
C1157      C1158   1.422       .  A
C1158      C1162   1.508       .  S
C1159      C1164   1.407       .  A
C1159      C1168   1.399       .  A
C1160      H1176   1.110       .  S
C1160      H1177   1.110       .  S
C1160      H1178   1.111       .  S
C1162      H1173   1.110       .  S
C1162      H1174   1.111       .  S
C1162      H1175   1.110       .  S
C1164      C1169   1.507       .  S
C1164      C1165   1.400       .  A
C1165      C1166   1.407       .  A
C1165      H1170   1.084       .  S
C1166      C1167   1.419       .  A
C1167      C1171   1.508       .  S
C1167      C1168   1.401       .  A
C1168      H1172   1.083       .  S
C1169      H1179   1.111       .  S
C1169      H1180   1.110       .  S
C1169      H1181   1.110       .  S
C1171      H1182   1.110       .  S
C1171      H1183   1.110       .  S
C1171      H1184   1.111       .  S
C1185      C1186   1.402       .  A
C1185      C1190   1.409       .  A
C1185      H1195   1.084       .  S
C1186      C1191   1.487       .  S
C1186      C1187   1.412       .  A
C1187      C1192   1.508       .  S
C1187      C1188   1.402       .  A
C1188      C1189   1.405       .  A
C1188      H1193   1.084       .  S
C1189      C1190   1.418       .  A
C1190      C1194   1.506       .  S
C1191      C1196   1.412       .  A
C1191      C1200   1.399       .  A
C1192      H1208   1.109       .  S
C1192      H1209   1.110       .  S
C1192      H1210   1.111       .  S
C1194      H1205   1.111       .  S
C1194      H1206   1.111       .  S
C1194      H1207   1.110       .  S
C1196      C1201   1.506       .  S
C1196      C1197   1.407       .  A
C1197      C1198   1.407       .  A
C1197      H1202   1.084       .  S
C1198      C1199   1.421       .  A
C1199      C1203   1.508       .  S
C1199      C1200   1.404       .  A
C1200      H1204   1.084       .  S
C1201      H1211   1.111       .  S
C1201      H1212   1.110       .  S
C1201      H1213   1.110       .  S
C1203      H1214   1.111       .  S
C1203      H1215   1.109       .  S
C1203      H1216   1.111       .  S
C1217      C1218   1.403       .  A
C1217      C1222   1.408       .  A
C1217      H1227   1.084       .  S
C1218      C1223   1.490   1_455  S
C1218      C1219   1.414       .  A
C1219      C1224   1.510       .  S
C1219      C1220   1.402       .  A
C1220      C1221   1.406       .  A
C1220      H1225   1.083       .  S
C1221      C1222   1.420       .  A
C1222      C1226   1.507       .  S
C1223      C1228   1.414       .  A
C1223      C1232   1.402       .  A
C1224      H1240   1.108       .  S
C1224      H1241   1.110       .  S
C1224      H1242   1.111       .  S
C1226      H1237   1.111       .  S
C1226      H1238   1.111       .  S
C1226      H1239   1.110       .  S
C1228      C1233   1.507       .  S
C1228      C1229   1.405       .  A
C1229      C1230   1.405       .  A
C1229      H1234   1.084       .  S
C1230      C1231   1.419       .  A
C1231      C1235   1.509       .  S
C1231      C1232   1.404       .  A
C1232      H1236   1.083       .  S
C1233      H1243   1.111       .  S
C1233      H1244   1.109       .  S
C1233      H1245   1.110   1_655  S
C1235      H1246   1.109       .  S
C1235      H1247   1.111       .  S
C1235      H1248   1.111       .  S
C1249      C1250   1.402       .  A
C1249      C1254   1.407       .  A
C1249      H1259   1.084       .  S
C1250      C1255   1.481       .  S
C1250      C1251   1.407       .  A
C1251      C1256   1.507       .  S
C1251      C1252   1.402       .  A
C1252      C1253   1.409       .  A
C1252      H1257   1.084       .  S
C1253      C1254   1.418       .  A
C1254      C1258   1.506       .  S
C1255      C1260   1.408       .  A
C1255      C1264   1.399       .  A
C1256      H1272   1.110       .  S
C1256      H1273   1.110       .  S
C1256      H1274   1.111       .  S
C1258      H1269   1.111       .  S
C1258      H1270   1.110       .  S
C1258      H1271   1.110       .  S
C1260      C1265   1.505       .  S
C1260      C1261   1.405       .  A
C1261      C1262   1.408       .  A
C1261      H1266   1.084       .  S
C1262      C1263   1.422       .  A
C1263      C1267   1.509       .  S
C1263      C1264   1.403       .  A
C1264      H1268   1.085       .  S
C1265      H1275   1.111       .  S
C1265      H1276   1.110       .  S
C1265      H1277   1.110       .  S
C1267      H1278   1.110       .  S
C1267      H1279   1.110       .  S
C1267      H1280   1.111       .  S
C1281      C1282   1.397       .  A
C1281      C1286   1.402       .  A
C1281      H1291   1.085       .  S
C1282      C1287   1.471       .  S
C1282      C1283   1.407       .  A
C1283      C1288   1.508       .  S
C1283      C1284   1.399       .  A
C1284      C1285   1.407       .  A
C1284      H1289   1.084       .  S
C1285      C1286   1.421       .  A
C1286      C1290   1.508       .  S
C1287      C1292   1.406       .  A
C1287      C1296   1.398       .  A
C1288      H1304   1.110       .  S
C1288      H1305   1.110       .  S
C1288      H1306   1.111       .  S
C1290      H1301   1.110       .  S
C1290      H1302   1.111       .  S
C1290      H1303   1.110       .  S
C1292      C1297   1.508       .  S
C1292      C1293   1.398       .  A
C1293      C1294   1.408       .  A
C1293      H1298   1.084       .  S
C1294      C1295   1.421       .  A
C1295      C1299   1.508       .  S
C1295      C1296   1.404       .  A
C1296      H1300   1.085       .  S
C1297      H1307   1.111       .  S
C1297      H1308   1.110       .  S
C1297      H1309   1.110       .  S
C1299      H1310   1.111       .  S
C1299      H1311   1.110       .  S
C1299      H1312   1.110       .  S
C1313      C1314   1.402       .  A
C1313      C1318   1.408       .  A
C1313      H1323   1.084       .  S
C1314      C1319   1.488       .  S
C1314      C1315   1.409       .  A
C1315      C1320   1.506       .  S
C1315      C1316   1.405       .  A
C1316      C1317   1.408       .  A
C1316      H1321   1.084       .  S
C1317      C1318   1.419       .  A
C1318      C1322   1.507       .  S
C1319      C1324   1.409       .  A
C1319      C1328   1.402       .  A
C1320      H1336   1.110       .  S
C1320      H1337   1.110       .  S
C1320      H1338   1.111       .  S
C1322      H1333   1.111       .  S
C1322      H1334   1.110       .  S
C1322      H1335   1.110       .  S
C1324      C1329   1.506       .  S
C1324      C1325   1.406       .  A
C1325      C1326   1.408       .  A
C1325      H1330   1.083       .  S
C1326      C1327   1.421       .  A
C1327      C1331   1.508       .  S
C1327      C1328   1.407       .  A
C1328      H1332   1.084       .  S
C1329      H1339   1.111       .  S
C1329      H1340   1.110       .  S
C1329      H1341   1.110       .  S
C1331      H1342   1.111       .  S
C1331      H1343   1.110       .  S
C1331      H1344   1.111       .  S
C1345      C1346   1.400       .  A
C1345      C1350   1.406       .  A
C1345      H1355   1.084       .  S
C1346      C1351   1.484   1_556  S
C1346      C1347   1.412       .  A
C1347      C1352   1.507       .  S
C1347      C1348   1.404       .  A
C1348      C1349   1.403       .  A
C1348      H1353   1.084       .  S
C1349      C1350   1.419       .  A
C1350      C1354   1.508       .  S
C1351      C1356   1.410       .  A
C1351      C1360   1.399       .  A
C1352      H1368   1.110       .  S
C1352      H1369   1.110   1_556  S
C1352      H1370   1.111       .  S
C1354      H1365   1.109       .  S
C1354      H1366   1.111       .  S
C1354      H1367   1.111       .  S
C1356      C1361   1.508       .  S
C1356      C1357   1.403       .  A
C1357      C1358   1.408       .  A
C1357      H1362   1.084       .  S
C1358      C1359   1.423       .  A
C1359      C1363   1.507       .  S
C1359      C1360   1.408       .  A
C1360      H1364   1.085   1_554  S
C1361      H1371   1.111       .  S
C1361      H1372   1.110       .  S
C1361      H1373   1.110       .  S
C1363      H1374   1.111       .  S
C1363      H1375   1.110       .  S
C1363      H1376   1.110       .  S
C1377      C1378   1.398       .  A
C1377      C1382   1.408       .  A
C1377      H1387   1.084       .  S
C1378      C1383   1.494       .  S
C1378      C1379   1.413       .  A
C1379      C1384   1.507       .  S
C1379      C1380   1.411       .  A
C1380      C1381   1.410       .  A
C1380      H1385   1.083       .  S
C1381      C1382   1.426       .  A
C1382      C1386   1.508       .  S
C1383      C1388   1.412       .  A
C1383      C1392   1.403       .  A
C1384      H1400   1.110       .  S
C1384      H1401   1.108       .  S
C1384      H1402   1.111       .  S
C1386      H1397   1.111       .  S
C1386      H1398   1.111       .  S
C1386      H1399   1.109       .  S
C1388      C1393   1.509       .  S
C1388      C1389   1.406       .  A
C1389      C1390   1.410       .  A
C1389      H1394   1.084       .  S
C1390      C1391   1.423       .  A
C1391      C1395   1.506       .  S
C1391      C1392   1.413       .  A
C1392      H1396   1.083       .  S
C1393      H1403   1.111       .  S
C1393      H1404   1.110       .  S
C1393      H1405   1.108       .  S
C1395      H1406   1.110       .  S
C1395      H1407   1.110       .  S
C1395      H1408   1.111       .  S
C1409      C1410   1.405       .  A
C1409      C1414   1.413       .  A
C1409      H1419   1.084       .  S
C1410      C1415   1.496       .  S
C1410      C1411   1.413       .  A
C1411      C1416   1.507       .  S
C1411      C1412   1.407       .  A
C1412      C1413   1.405       .  A
C1412      H1417   1.084       .  S
C1413      C1414   1.418       .  A
C1414      C1418   1.506       .  S
C1415      C1420   1.411       .  A
C1415      C1424   1.403       .  A
C1416      H1432   1.110       .  S
C1416      H1433   1.110       .  S
C1416      H1434   1.111       .  S
C1418      H1429   1.109       .  S
C1418      H1430   1.111       .  S
C1418      H1431   1.111       .  S
C1420      C1425   1.506       .  S
C1420      C1421   1.406       .  A
C1421      C1422   1.408       .  A
C1421      H1426   1.084       .  S
C1422      C1423   1.424       .  A
C1423      C1427   1.507       .  S
C1423      C1424   1.413       .  A
C1424      H1428   1.083       .  S
C1425      H1435   1.111       .  S
C1425      H1436   1.110       .  S
C1425      H1437   1.110       .  S
C1427      H1438   1.111       .  S
C1427      H1439   1.110       .  S
C1427      H1440   1.110       .  S
C1441      C1442   1.398       .  A
C1441      C1446   1.404       .  A
C1441      H1451   1.084       .  S
C1442      C1447   1.479       .  S
C1442      C1443   1.409       .  A
C1443      C1448   1.507       .  S
C1443      C1444   1.404       .  A
C1444      C1445   1.407       .  A
C1444      H1449   1.084       .  S
C1445      C1446   1.422       .  A
C1446      C1450   1.508       .  S
C1447      C1452   1.408       .  A
C1447      C1456   1.398       .  A
C1448      H1464   1.111       .  S
C1448      H1465   1.109       .  S
C1448      H1466   1.111       .  S
C1450      H1461   1.111       .  S
C1450      H1462   1.110       .  S
C1450      H1463   1.110       .  S
C1452      C1457   1.507       .  S
C1452      C1453   1.402       .  A
C1453      C1454   1.409       .  A
C1453      H1458   1.083       .  S
C1454      C1455   1.422       .  A
C1455      C1459   1.508       .  S
C1455      C1456   1.404       .  A
C1456      H1460   1.083       .  S
C1457      H1467   1.111       .  S
C1457      H1468   1.110       .  S
C1457      H1469   1.109       .  S
C1459      H1470   1.111       .  S
C1459      H1471   1.110       .  S
C1459      H1472   1.110       .  S
C1473      C1474   1.396       .  A
C1473      C1478   1.412       .  A
C1473      H1483   1.084       .  S
C1474      C1479   1.490       .  S
C1474      C1475   1.404       .  A
C1475      C1480   1.507       .  S
C1475      C1476   1.405       .  A
C1476      C1477   1.424       .  A
C1476      H1481   1.078       .  S
C1477      C1478   1.437       .  A
C1478      C1482   1.504       .  S
C1479      C1484   1.410       .  A
C1479      C1488   1.401       .  A
C1480      H1496   1.110       .  S
C1480      H1497   1.110       .  S
C1480      H1498   1.111       .  S
C1482      H1493   1.111       .  S
C1482      H1494   1.106       .  S
C1482      H1495   1.101       .  S
C1484      C1489   1.507       .  S
C1484      C1485   1.404       .  A
C1485      C1486   1.410       .  A
C1485      H1490   1.083       .  S
C1486      C1487   1.422       .  A
C1487      C1491   1.506       .  S
C1487      C1488   1.411       .  A
C1488      H1492   1.084       .  S
C1489      H1499   1.111       .  S
C1489      H1500   1.109       .  S
C1489      H1501   1.110       .  S
C1491      H1502   1.110       .  S
C1491      H1503   1.110       .  S
C1491      H1504   1.111       .  S
C1505      C1506   1.401       .  A
C1505      C1510   1.406       .  A
C1505      H1515   1.085       .  S
C1506      C1511   1.480       .  S
C1506      C1507   1.409       .  A
C1507      C1512   1.507       .  S
C1507      C1508   1.402       .  A
C1508      C1509   1.405       .  A
C1508      H1513   1.084       .  S
C1509      C1510   1.419       .  A
C1510      C1514   1.508       .  S
C1511      C1516   1.402       .  A
C1511      C1520   1.395       .  A
C1512      H1528   1.110       .  S
C1512      H1529   1.110       .  S
C1512      H1530   1.111       .  S
C1514      H1525   1.111       .  S
C1514      H1526   1.110       .  S
C1514      H1527   1.105       .  S
C1516      C1521   1.508       .  S
C1516      C1517   1.397       .  A
C1517      C1518   1.422       .  A
C1517      H1522   1.085       .  S
C1518      C1519   1.443       .  A
C1519      C1523   1.512       .  S
C1519      C1520   1.409       .  A
C1520      H1524   1.086       .  S
C1521      H1531   1.111       .  S
C1521      H1532   1.110       .  S
C1521      H1533   1.110       .  S
C1523      H1534   1.097       .  S
C1523      H1535   1.110       .  S
C1523      H1536   1.111       .  S
C1537      C1538   1.392       .  A
C1537      C1542   1.406       .  A
C1537      H1547   1.085       .  S
C1538      C1543   1.483       .  S
C1538      C1539   1.400       .  A
C1539      C1544   1.507       .  S
C1539      C1540   1.403       .  A
C1540      C1541   1.424       .  A
C1540      H1545   1.079       .  S
C1541      C1542   1.448       .  A
C1542      C1546   1.514       .  S
C1543      C1548   1.410       .  A
C1543      C1552   1.399       .  A
C1544      H1560   1.109       .  S
C1544      H1561   1.111       .  S
C1544      H1562   1.111       .  S
C1546      H1557   1.111       .  S
C1546      H1558   1.104       .  S
C1546      H1559   1.103       .  S
C1548      C1553   1.507       .  S
C1548      C1549   1.404       .  A
C1549      C1550   1.407       .  A
C1549      H1554   1.083       .  S
C1550      C1551   1.424       .  A
C1551      C1555   1.509       .  S
C1551      C1552   1.404       .  A
C1552      H1556   1.085       .  S
C1553      H1563   1.111       .  S
C1553      H1564   1.109       .  S
C1553      H1565   1.110       .  S
C1555      H1566   1.111       .  S
C1555      H1567   1.110       .  S
C1555      H1568   1.110       .  S
C1569      C1570   1.399       .  A
C1569      C1574   1.416       .  A
C1569      H1579   1.084       .  S
C1570      C1575   1.490       .  S
C1570      C1571   1.402       .  A
C1571      C1576   1.510       .  S
C1571      C1572   1.399       .  A
C1572      C1573   1.426       .  A
C1572      H1577   1.081       .  S
C1573      C1574   1.444       .  A
C1574      C1578   1.511       .  S
C1575      C1580   1.411       .  A
C1575      C1584   1.402       .  A
C1576      H1592   1.110       .  S
C1576      H1593   1.108       .  S
C1576      H1594   1.111       .  S
C1578      H1589   1.111       .  S
C1578      H1590   1.109       .  S
C1578      H1591   1.095       .  S
C1580      C1585   1.508       .  S
C1580      C1581   1.406       .  A
C1581      C1582   1.409       .  A
C1581      H1586   1.084       .  S
C1582      C1583   1.419       .  A
C1583      C1587   1.506       .  S
C1583      C1584   1.410       .  A
C1584      H1588   1.084       .  S
C1585      H1595   1.111       .  S
C1585      H1596   1.110       .  S
C1585      H1597   1.108       .  S
C1587      H1598   1.110       .  S
C1587      H1599   1.110       .  S
C1587      H1600   1.111       .  S
C1601      C1602   1.393       .  A
C1601      C1606   1.410       .  A
C1601      H1611   1.085       .  S
C1602      C1607   1.486       .  S
C1602      C1603   1.403       .  A
C1603      C1608   1.510   1_565  S
C1603      C1604   1.400       .  A
C1604      C1605   1.425       .  A
C1604      H1609   1.075       .  S
C1605      C1606   1.445       .  A
C1606      C1610   1.513       .  S
C1607      C1612   1.410       .  A
C1607      C1616   1.399       .  A
C1608      H1624   1.109       .  S
C1608      H1625   1.110       .  S
C1608      H1626   1.110       .  S
C1610      H1621   1.111       .  S
C1610      H1622   1.104       .  S
C1610      H1623   1.100       .  S
C1612      C1617   1.506       .  S
C1612      C1613   1.408       .  A
C1613      C1614   1.408       .  A
C1613      H1618   1.084       .  S
C1614      C1615   1.420       .  A
C1615      C1619   1.508       .  S
C1615      C1616   1.403       .  A
C1616      H1620   1.084       .  S
C1617      H1627   1.111       .  S
C1617      H1628   1.110       .  S
C1617      H1629   1.110       .  S
C1619      H1630   1.111       .  S
C1619      H1631   1.111       .  S
C1619      H1632   1.109       .  S
C1633      C1634   1.392       .  A
C1633      C1638   1.403   1_545  A
C1633      H1643   1.086       .  S
C1634      C1639   1.485       .  S
C1634      C1635   1.405       .  A
C1635      C1640   1.505       .  S
C1635      C1636   1.407   1_545  A
C1636      C1637   1.424       .  A
C1636      H1641   1.083       .  S
C1637      C1638   1.445       .  A
C1638      C1642   1.514       .  S
C1639      C1644   1.411       .  A
C1639      C1648   1.401       .  A
C1640      H1656   1.110       .  S
C1640      H1657   1.110       .  S
C1640      H1658   1.111       .  S
C1642      H1653   1.111       .  S
C1642      H1654   1.111       .  S
C1642      H1655   1.094       .  S
C1644      C1649   1.507       .  S
C1644      C1645   1.405       .  A
C1645      C1646   1.407       .  A
C1645      H1650   1.084       .  S
C1646      C1647   1.419       .  A
C1647      C1651   1.507       .  S
C1647      C1648   1.407       .  A
C1648      H1652   1.084       .  S
C1649      H1659   1.111       .  S
C1649      H1660   1.110       .  S
C1649      H1661   1.110       .  S
C1651      H1662   1.111       .  S
C1651      H1663   1.110       .  S
C1651      H1664   1.111       .  S
C1665      C1666   1.397       .  A
C1665      C1670   1.414       .  A
C1665      H1675   1.085       .  S
C1666      C1671   1.492       .  S
C1666      C1667   1.404       .  A
C1667      C1672   1.508       .  S
C1667      C1668   1.406       .  A
C1668      C1669   1.424       .  A
C1668      H1673   1.078       .  S
C1669      C1670   1.440       .  A
C1670      C1674   1.507       .  S
C1671      C1676   1.405       .  A
C1671      C1680   1.393       .  A
C1672      H1688   1.110       .  S
C1672      H1689   1.109       .  S
C1672      H1690   1.111       .  S
C1674      H1685   1.107       .  S
C1674      H1686   1.111       .  S
C1674      H1687   1.099       .  S
C1676      C1681   1.506       .  S
C1676      C1677   1.409       .  A
C1677      C1678   1.424       .  A
C1677      H1682   1.083       .  S
C1678      C1679   1.447       .  A
C1679      C1683   1.514       .  S
C1679      C1680   1.407       .  A
C1680      H1684   1.086       .  S
C1681      H1691   1.111       .  S
C1681      H1692   1.110       .  S
C1681      H1693   1.109       .  S
C1683      H1694   1.112       .  S
C1683      H1695   1.111       .  S
C1683      H1696   1.093       .  S
C1697      C1698   1.393       .  A
C1697      C1702   1.406       .  A
C1697      H1707   1.084       .  S
C1698      C1703   1.488       .  S
C1698      C1699   1.404       .  A
C1699      C1704   1.507       .  S
C1699      C1700   1.406       .  A
C1700      C1701   1.422       .  A
C1700      H1705   1.075       .  S
C1701      C1702   1.445       .  A
C1702      C1706   1.513       .  S
C1703      C1708   1.413       .  A
C1703      C1712   1.400       .  A
C1704      H1720   1.109       .  S
C1704      H1721   1.111       .  S
C1704      H1722   1.111       .  S
C1706      H1717   1.105       .  S
C1706      H1718   1.111       .  S
C1706      H1719   1.103       .  S
C1708      C1713   1.506       .  S
C1708      C1709   1.408       .  A
C1709      C1710   1.406       .  A
C1709      H1714   1.084       .  S
C1710      C1711   1.418       .  A
C1711      C1715   1.508       .  S
C1711      C1712   1.403       .  A
C1712      H1716   1.084       .  S
C1713      H1723   1.111       .  S
C1713      H1724   1.109       .  S
C1713      H1725   1.110       .  S
C1715      H1726   1.109       .  S
C1715      H1727   1.110       .  S
C1715      H1728   1.111       .  S
C1729      C1730   1.392       .  A
C1729      C1734   1.404       .  A
C1729      H1739   1.084       .  S
C1730      C1735   1.483       .  S
C1730      C1731   1.403       .  A
C1731      C1736   1.508       .  S
C1731      C1732   1.405       .  A
C1732      C1733   1.426       .  A
C1732      H1737   1.073       .  S
C1733      C1734   1.441       .  A
C1734      C1738   1.510       .  S
C1735      C1740   1.408       .  A
C1735      C1744   1.403       .  A
C1736      H1752   1.110       .  S
C1736      H1753   1.110       .  S
C1736      H1754   1.111       .  S
C1738      H1749   1.111       .  S
C1738      H1750   1.111       .  S
C1738      H1751   1.094       .  S
C1740      C1745   1.508       .  S
C1740      C1741   1.398       .  A
C1741      C1742   1.408       .  A
C1741      H1746   1.083       .  S
C1742      C1743   1.421       .  A
C1743      C1747   1.506       .  S
C1743      C1744   1.412       .  A
C1744      H1748   1.084       .  S
C1745      H1755   1.111       .  S
C1745      H1756   1.110       .  S
C1745      H1757   1.109       .  S
C1747      H1758   1.111       .  S
C1747      H1759   1.110       .  S
C1747      H1760   1.110       .  S
C1761      C1762   1.402       .  A
C1761      C1766   1.410       .  A
C1761      H1771   1.084       .  S
C1762      C1767   1.482       .  S
C1762      C1763   1.409       .  A
C1763      C1768   1.509       .  S
C1763      C1764   1.399       .  A
C1764      C1765   1.407       .  A
C1764      H1769   1.084       .  S
C1765      C1766   1.419       .  A
C1766      C1770   1.506       .  S
C1767      C1772   1.401       .  A
C1767      C1776   1.392       .  A
C1768      H1784   1.111       .  S
C1768      H1785   1.109       .  S
C1768      H1786   1.111       .  S
C1770      H1781   1.109       .  S
C1770      H1782   1.111       .  S
C1770      H1783   1.111       .  S
C1772      C1777   1.508       .  S
C1772      C1773   1.403       .  A
C1773      C1774   1.425       .  A
C1773      H1778   1.078       .  S
C1774      C1775   1.442       .  A
C1775      C1779   1.510       .  S
C1775      C1776   1.407       .  A
C1776      H1780   1.084       .  S
C1777      H1787   1.111       .  S
C1777      H1788   1.110       .  S
C1777      H1789   1.109       .  S
C1779      H1790   1.107       .  S
C1779      H1791   1.104       .  S
C1779      H1792   1.111       .  S
C1793      C1794   1.390       .  A
C1793      C1798   1.409       .  A
C1793      H1803   1.085       .  S
C1794      C1799   1.485       .  S
C1794      C1795   1.398       .  A
C1795      C1800   1.506       .  S
C1795      C1796   1.404       .  A
C1796      C1797   1.427       .  A
C1796      H1801   1.079       .  S
C1797      C1798   1.454       .  A
C1798      C1802   1.516       .  S
C1799      C1804   1.411       .  A
C1799      C1808   1.401       .  A
C1800      H1816   1.111       .  S
C1800      H1817   1.110       .  S
C1800      H1818   1.110       .  S
C1802      H1813   1.111   1_556  S
C1802      H1814   1.103   1_556  S
C1802      H1815   1.103       .  S
C1804      C1809   1.508       .  S
C1804      C1805   1.403       .  A
C1805      C1806   1.406       .  A
C1805      H1810   1.084       .  S
C1806      C1807   1.419       .  A
C1807      C1811   1.507       .  S
C1807      C1808   1.409       .  A
C1808      H1812   1.084       .  S
C1809      H1819   1.111       .  S
C1809      H1820   1.110       .  S
C1809      H1821   1.110       .  S
C1811      H1822   1.111       .  S
C1811      H1823   1.110       .  S
C1811      H1824   1.110       .  S
C1825      C1826   1.396       .  A
C1825      C1830   1.414       .  A
C1825      H1835   1.084       .  S
C1826      C1831   1.486       .  S
C1826      C1827   1.400       .  A
C1827      C1832   1.509       .  S
C1827      C1828   1.399       .  A
C1828      C1829   1.426       .  A
C1828      H1833   1.077       .  S
C1829      C1830   1.443       .  A
C1830      C1834   1.511       .  S
C1831      C1836   1.409       .  A
C1831      C1840   1.401       .  A
C1832      H1848   1.110       .  S
C1832      H1849   1.108       .  S
C1832      H1850   1.111       .  S
C1834      H1845   1.111       .  S
C1834      H1846   1.102       .  S
C1834      H1847   1.106       .  S
C1836      C1841   1.509       .  S
C1836      C1837   1.403       .  A
C1837      C1838   1.410       .  A
C1837      H1842   1.083       .  S
C1838      C1839   1.421       .  A
C1839      C1843   1.507       .  S
C1839      C1840   1.409       .  A
C1840      H1844   1.084       .  S
C1841      H1851   1.111       .  S
C1841      H1852   1.110       .  S
C1841      H1853   1.108       .  S
C1843      H1854   1.110       .  S
C1843      H1855   1.110       .  S
C1843      H1856   1.111       .  S
C1857      C1858   1.400       .  A
C1857      C1862   1.415   1_554  A
C1857      H1867   1.083       .  S
C1858      C1863   1.486       .  S
C1858      C1859   1.403       .  A
C1859      C1864   1.510       .  S
C1859      C1860   1.397   1_554  A
C1860      C1861   1.423       .  A
C1860      H1865   1.076       .  S
C1861      C1862   1.437       .  A
C1862      C1866   1.512       .  S
C1863      C1868   1.411       .  A
C1863      C1872   1.400       .  A
C1864      H1880   1.110       .  S
C1864      H1881   1.109       .  S
C1864      H1882   1.111       .  S
C1866      H1877   1.107       .  S
C1866      H1878   1.110       .  S
C1866      H1879   1.108       .  S
C1868      C1873   1.506       .  S
C1868      C1869   1.409       .  A
C1869      C1870   1.407       .  A
C1869      H1874   1.084       .  S
C1870      C1871   1.418       .  A
C1871      C1875   1.508       .  S
C1871      C1872   1.404       .  A
C1872      H1876   1.086       .  S
C1873      H1883   1.111       .  S
C1873      H1884   1.110       .  S
C1873      H1885   1.110       .  S
C1875      H1886   1.111       .  S
C1875      H1887   1.107       .  S
C1875      H1888   1.110       .  S
C1889      C1890   1.398       .  A
C1889      C1894   1.411       .  A
C1889      H1899   1.084       .  S
C1890      C1895   1.499       .  S
C1890      C1891   1.407       .  A
C1891      C1896   1.513       .  S
C1891      C1892   1.407       .  A
C1892      C1893   1.425       .  A
C1892      H1897   1.074       .  S
C1893      C1894   1.444       .  A
C1894      C1898   1.511       .  S
C1895      C1900   1.409       .  A
C1895      C1904   1.398       .  A
C1896      H1912   1.110       .  S
C1896      H1913   1.104       .  S
C1896      H1914   1.111       .  S
C1898      H1909   1.108       .  S
C1898      H1910   1.111       .  S
C1898      H1911   1.107       .  S
C1900      C1905   1.513       .  S
C1900      C1901   1.407       .  A
C1901      C1902   1.426       .  A
C1901      H1906   1.078       .  S
C1902      C1903   1.439       .  A
C1903      C1907   1.509       .  S
C1903      C1904   1.408       .  A
C1904      H1908   1.086       .  S
C1905      H1915   1.111       .  S
C1905      H1916   1.110       .  S
C1905      H1917   1.104       .  S
C1907      H1918   1.111       .  S
C1907      H1919   1.093       .  S
C1907      H1920   1.111       .  S
C1921      C1922   1.394       .  A
C1921      C1926   1.406       .  A
C1921      H1931   1.085       .  S
C1922      C1927   1.485       .  S
C1922      C1923   1.403       .  A
C1923      C1928   1.509       .  S
C1923      C1924   1.404       .  A
C1924      C1925   1.426       .  A
C1924      H1929   1.073       .  S
C1925      C1926   1.439       .  A
C1926      C1930   1.509       .  S
C1927      C1932   1.408       .  A
C1927      C1936   1.402       .  A
C1928      H1944   1.110       .  S
C1928      H1945   1.110       .  S
C1928      H1946   1.111       .  S
C1930      H1941   1.110       .  S
C1930      H1942   1.111       .  S
C1930      H1943   1.097       .  S
C1932      C1937   1.508       .  S
C1932      C1933   1.402       .  A
C1933      C1934   1.410       .  A
C1933      H1938   1.084       .  S
C1934      C1935   1.422       .  A
C1935      C1939   1.506       .  S
C1935      C1936   1.411       .  A
C1936      H1940   1.084       .  S
C1937      H1947   1.110       .  S
C1937      H1948   1.110       .  S
C1937      H1949   1.110       .  S
C1939      H1950   1.111       .  S
C1939      H1951   1.110       .  S
C1939      H1952   1.110       .  S
C1953      C1954   1.395       .  A
C1953      C1958   1.406       .  A
C1953      H1963   1.084       .  S
C1954      C1959   1.484       .  S
C1954      C1955   1.404       .  A
C1955      C1960   1.506       .  S
C1955      C1956   1.404       .  A
C1956      C1957   1.419       .  A
C1956      H1961   1.071       .  S
C1957      C1958   1.440       .  A
C1958      C1962   1.511       .  S
C1959      C1964   1.409       .  A
C1959      C1968   1.399       .  A
C1960      H1976   1.110       .  S
C1960      H1977   1.111       .  S
C1960      H1978   1.110       .  S
C1962      H1973   1.110       .  S
C1962      H1974   1.111       .  S
C1962      H1975   1.099       .  S
C1964      C1969   1.506       .  S
C1964      C1965   1.405       .  A
C1965      C1966   1.408       .  A
C1965      H1970   1.083       .  S
C1966      C1967   1.424       .  A
C1967      C1971   1.509       .  S
C1967      C1968   1.405       .  A
C1968      H1972   1.084       .  S
C1969      H1979   1.111       .  S
C1969      H1980   1.110       .  S
C1969      H1981   1.110       .  S
C1971      H1982   1.111       .  S
C1971      H1983   1.110       .  S
C1971      H1984   1.110       .  S
C1985      C1986   1.392       .  A
C1985      C1990   1.404       .  A
C1985      H1995   1.085       .  S
C1986      C1991   1.484       .  S
C1986      C1987   1.403       .  A
C1987      C1992   1.506       .  S
C1987      C1988   1.407       .  A
C1988      C1989   1.425       .  A
C1988      H1993   1.075       .  S
C1989      C1990   1.443       .  A
C1990      C1994   1.512       .  S
C1991      C1996   1.412       .  A
C1991      C2000   1.400       .  A
C1992      H2008   1.110       .  S
C1992      H2009   1.110       .  S
C1992      H2010   1.111       .  S
C1994      H2005   1.111       .  S
C1994      H2006   1.106       .  S
C1994      H2007   1.104       .  S
C1996      C2001   1.506       .  S
C1996      C1997   1.408       .  A
C1997      C1998   1.405       .  A
C1997      H2002   1.084       .  S
C1998      C1999   1.416       .  A
C1999      C2003   1.508       .  S
C1999      C2000   1.403       .  A
C2000      H2004   1.084       .  S
C2001      H2011   1.111       .  S
C2001      H2012   1.110       .  S
C2001      H2013   1.111       .  S
C2003      H2014   1.109       .  S
C2003      H2015   1.111       .  S
C2003      H2016   1.111       .  S
C2017      C2018   1.396       .  A
C2017      C2022   1.409       .  A
C2017      H2027   1.083       .  S
C2018      C2023   1.484       .  S
C2018      C2019   1.403       .  A
C2019      C2024   1.508       .  S
C2019      C2020   1.400       .  A
C2020      C2021   1.422       .  A
C2020      H2025   1.077       .  S
C2021      C2022   1.439       .  A
C2022      C2026   1.512       .  S
C2023      C2028   1.408       .  A
C2023      C2032   1.401       .  A
C2024      H2040   1.110       .  S
C2024      H2041   1.110       .  S
C2024      H2042   1.111       .  S
C2026      H2037   1.110       .  S
C2026      H2038   1.108       .  S
C2026      H2039   1.105       .  S
C2028      C2033   1.509   1_655  S
C2028      C2029   1.402       .  A
C2029      C2030   1.410       .  A
C2029      H2034   1.083   1_655  S
C2030      C2031   1.421       .  A
C2031      C2035   1.506       .  S
C2031      C2032   1.410       .  A
C2032      H2036   1.083       .  S
C2033      H2043   1.111       .  S
C2033      H2044   1.110       .  S
C2033      H2045   1.111   1_455  S
C2035      H2046   1.111       .  S
C2035      H2047   1.110       .  S
C2035      H2048   1.110       .  S
C2049      C2050   1.399       .  A
C2049      C2054   1.401       .  A
C2049      H2059   1.085       .  S
C2050      C2055   1.479       .  S
C2050      C2051   1.410       .  A
C2051      C2056   1.506       .  S
C2051      C2052   1.406       .  A
C2052      C2053   1.406       .  A
C2052      H2057   1.084       .  S
C2053      C2054   1.417       .  A
C2054      C2058   1.508       .  S
C2055      C2060   1.401       .  A
C2055      C2064   1.391       .  A
C2056      H2072   1.110       .  S
C2056      H2073   1.110       .  S
C2056      H2074   1.111       .  S
C2058      H2069   1.111       .  S
C2058      H2070   1.109       .  S
C2058      H2071   1.111       .  S
C2060      C2065   1.507       .  S
C2060      C2061   1.404       .  A
C2061      C2062   1.422       .  A
C2061      H2066   1.077       .  S
C2062      C2063   1.445       .  A
C2063      C2067   1.513       .  S
C2063      C2064   1.404       .  A
C2064      H2068   1.085       .  S
C2065      H2075   1.110       .  S
C2065      H2076   1.110       .  S
C2065      H2077   1.110       .  S
C2067      H2078   1.111       .  S
C2067      H2079   1.104       .  S
C2067      H2080   1.105       .  S
C2081      C2082   1.394       .  A
C2081      C2086   1.406   1_455  A
C2081      H2091   1.085       .  S
C2082      C2087   1.488       .  S
C2082      C2083   1.403       .  A
C2083      C2088   1.508       .  S
C2083      C2084   1.405   1_455  A
C2084      C2085   1.427       .  A
C2084      H2089   1.074       .  S
C2085      C2086   1.442       .  A
C2086      C2090   1.510       .  S
C2087      C2092   1.410       .  A
C2087      C2096   1.402       .  A
C2088      H2104   1.110       .  S
C2088      H2105   1.110       .  S
C2088      H2106   1.111       .  S
C2090      H2101   1.096       .  S
C2090      H2102   1.111       .  S
C2090      H2103   1.111       .  S
C2092      C2097   1.508       .  S
C2092      C2093   1.402       .  A
C2093      C2094   1.409       .  A
C2093      H2098   1.084       .  S
C2094      C2095   1.422       .  A
C2095      C2099   1.506       .  S
C2095      C2096   1.410       .  A
C2096      H2100   1.084       .  S
C2097      H2107   1.111       .  S
C2097      H2108   1.110       .  S
C2097      H2109   1.109       .  S
C2099      H2110   1.110       .  S
C2099      H2111   1.110       .  S
C2099      H2112   1.111       .  S
C2113      C2114   1.395       .  A
C2113      C2118   1.411       .  A
C2113      H2123   1.085       .  S
C2114      C2119   1.492       .  S
C2114      C2115   1.405       .  A
C2115      C2120   1.508       .  S
C2115      C2116   1.405       .  A
C2116      C2117   1.422       .  A
C2116      H2121   1.077       .  S
C2117      C2118   1.444       .  A
C2118      C2122   1.514       .  S
C2119      C2124   1.403       .  A
C2119      C2128   1.394       .  A
C2120      H2136   1.110       .  S
C2120      H2137   1.110       .  S
C2120      H2138   1.111       .  S
C2122      H2133   1.111       .  S
C2122      H2134   1.107       .  S
C2122      H2135   1.103       .  S
C2124      C2129   1.506       .  S
C2124      C2125   1.406       .  A
C2125      C2126   1.422       .  A
C2125      H2130   1.079       .  S
C2126      C2127   1.447       .  A
C2127      C2131   1.516       .  S
C2127      C2128   1.410       .  A
C2128      H2132   1.085       .  S
C2129      H2139   1.111       .  S
C2129      H2140   1.110       .  S
C2129      H2141   1.110       .  S
C2131      H2142   1.103       .  S
C2131      H2143   1.103       .  S
C2131      H2144   1.111       .  S
C2145      C2146   1.392       .  A
C2145      C2150   1.410       .  A
C2145      H2155   1.084   1_455  S
C2146      C2151   1.482   1_455  S
C2146      C2147   1.398       .  A
C2147      C2152   1.507       .  S
C2147      C2148   1.399       .  A
C2148      C2149   1.424       .  A
C2148      H2153   1.074       .  S
C2149      C2150   1.449       .  A
C2150      C2154   1.512       .  S
C2151      C2156   1.409       .  A
C2151      C2160   1.399       .  A
C2152      H2168   1.110       .  S
C2152      H2169   1.110       .  S
C2152      H2170   1.110       .  S
C2154      H2165   1.103       .  S
C2154      H2166   1.111       .  S
C2154      H2167   1.103       .  S
C2156      C2161   1.506       .  S
C2156      C2157   1.404       .  A
C2157      C2158   1.407       .  A
C2157      H2162   1.084       .  S
C2158      C2159   1.423       .  A
C2159      C2163   1.509       .  S
C2159      C2160   1.404       .  A
C2160      H2164   1.084       .  S
C2161      H2171   1.111       .  S
C2161      H2172   1.110       .  S
C2161      H2173   1.111       .  S
C2163      H2174   1.110       .  S
C2163      H2175   1.110       .  S
C2163      H2176   1.111       .  S
C2177      C2178   1.394       .  A
C2177      C2182   1.410       .  A
C2177      H2187   1.085       .  S
C2178      C2183   1.478   1_545  S
C2178      C2179   1.401       .  A
C2179      C2184   1.509       .  S
C2179      C2180   1.395       .  A
C2180      C2181   1.420       .  A
C2180      H2185   1.079       .  S
C2181      C2182   1.445       .  A
C2182      C2186   1.513       .  S
C2183      C2188   1.408       .  A
C2183      C2192   1.401       .  A
C2184      H2200   1.110   1_545  S
C2184      H2201   1.110   1_545  S
C2184      H2202   1.111       .  S
C2186      H2197   1.110       .  S
C2186      H2198   1.112       .  S
C2186      H2199   1.095       .  S
C2188      C2193   1.507   1_565  S
C2188      C2189   1.401       .  A
C2189      C2190   1.405       .  A
C2189      H2194   1.085       .  S
C2190      C2191   1.418       .  A
C2191      C2195   1.508       .  S
C2191      C2192   1.405       .  A
C2192      H2196   1.085       .  S
C2193      H2203   1.111   1_545  S
C2193      H2204   1.110       .  S
C2193      H2205   1.110       .  S
C2195      H2206   1.110       .  S
C2195      H2207   1.106       .  S
C2195      H2208   1.111       .  S
C2209      C2210   1.398       .  A
C2209      C2214   1.411       .  A
C2209      H2219   1.084       .  S
C2210      C2215   1.492   1_554  S
C2210      C2211   1.406       .  A
C2211      C2216   1.508   1_554  S
C2211      C2212   1.404       .  A
C2212      C2213   1.423       .  A
C2212      H2217   1.077       .  S
C2213      C2214   1.437       .  A
C2214      C2218   1.509       .  S
C2215      C2220   1.412       .  A
C2215      C2224   1.405       .  A
C2216      H2232   1.109       .  S
C2216      H2233   1.110       .  S
C2216      H2234   1.111   1_556  S
C2218      H2229   1.111       .  S
C2218      H2230   1.107       .  S
C2218      H2231   1.107       .  S
C2220      C2225   1.507       .  S
C2220      C2221   1.400       .  A
C2221      C2222   1.407       .  A
C2221      H2226   1.084       .  S
C2222      C2223   1.419       .  A
C2223      C2227   1.506       .  S
C2223      C2224   1.411       .  A
C2224      H2228   1.083       .  S
C2225      H2235   1.111       .  S
C2225      H2236   1.109   1_556  S
C2225      H2237   1.109   1_556  S
C2227      H2238   1.111       .  S
C2227      H2239   1.110       .  S
C2227      H2240   1.111       .  S
C2241      C2242   1.389       .  A
C2241      C2246   1.405       .  A
C2241      H2251   1.086       .  S
C2242      C2247   1.488       .  S
C2242      C2243   1.403       .  A
C2243      C2248   1.505       .  S
C2243      C2244   1.410       .  A
C2244      C2245   1.424       .  A
C2244      H2249   1.078       .  S
C2245      C2246   1.447       .  A
C2246      C2250   1.511       .  S
C2247      C2252   1.411       .  A
C2247      C2256   1.401       .  A
C2248      H2264   1.110       .  S
C2248      H2265   1.110       .  S
C2248      H2266   1.111       .  S
C2250      H2261   1.111       .  S
C2250      H2262   1.099       .  S
C2250      H2263   1.104       .  S
C2252      C2257   1.506       .  S
C2252      C2253   1.406       .  A
C2253      C2254   1.405       .  A
C2253      H2258   1.084       .  S
C2254      C2255   1.419       .  A
C2255      C2259   1.508       .  S
C2255      C2256   1.407       .  A
C2256      H2260   1.084       .  S
C2257      H2267   1.111       .  S
C2257      H2268   1.110       .  S
C2257      H2269   1.110       .  S
C2259      H2270   1.109       .  S
C2259      H2271   1.111       .  S
C2259      H2272   1.111       .  S
C2273      C2274   1.401       .  A
C2273      C2278   1.408       .  A
C2273      H2283   1.083       .  S
C2274      C2279   1.480       .  S
C2274      C2275   1.408       .  A
C2275      C2280   1.507       .  S
C2275      C2276   1.397       .  A
C2276      C2277   1.408       .  A
C2276      H2281   1.083       .  S
C2277      C2278   1.420       .  A
C2278      C2282   1.506       .  S
C2279      C2284   1.402       .  A
C2279      C2288   1.395       .  A
C2280      H2296   1.109       .  S
C2280      H2297   1.110       .  S
C2280      H2298   1.111       .  S
C2282      H2293   1.111       .  S
C2282      H2294   1.110       .  S
C2282      H2295   1.110       .  S
C2284      C2289   1.508       .  S
C2284      C2285   1.401       .  A
C2285      C2286   1.424       .  A
C2285      H2290   1.078       .  S
C2286      C2287   1.437       .  A
C2287      C2291   1.507       .  S
C2287      C2288   1.408       .  A
C2288      H2292   1.083       .  S
C2289      H2299   1.111       .  S
C2289      H2300   1.110       .  S
C2289      H2301   1.110       .  S
C2291      H2302   1.111       .  S
C2291      H2303   1.107       .  S
C2291      H2304   1.098       .  S
C2305      C2306   1.398       .  A
C2305      C2310   1.402       .  A
C2305      H2315   1.084       .  S
C2306      C2311   1.481       .  S
C2306      C2307   1.409       .  A
C2307      C2312   1.506       .  S
C2307      C2308   1.407       .  A
C2308      C2309   1.409       .  A
C2308      H2313   1.083       .  S
C2309      C2310   1.422       .  A
C2310      C2314   1.509       .  S
C2311      C2316   1.400       .  A
C2311      C2320   1.392       .  A
C2312      H2328   1.110       .  S
C2312      H2329   1.110       .  S
C2312      H2330   1.111       .  S
C2314      H2325   1.111       .  S
C2314      H2326   1.109       .  S
C2314      H2327   1.110       .  S
C2316      C2321   1.506       .  S
C2316      C2317   1.401       .  A
C2317      C2318   1.424       .  A
C2317      H2322   1.084       .  S
C2318      C2319   1.448       .  A
C2319      C2323   1.512       .  S
C2319      C2320   1.407       .  A
C2320      H2324   1.086       .  S
C2321      H2331   1.111       .  S
C2321      H2332   1.110       .  S
C2321      H2333   1.111       .  S
C2323      H2334   1.112       .  S
C2323      H2335   1.095       .  S
C2323      H2336   1.106       .  S
C2337      C2338   1.390       .  A
C2337      C2342   1.408       .  A
C2337      H2347   1.086       .  S
C2338      C2343   1.488       .  S
C2338      C2339   1.402       .  A
C2339      C2344   1.506       .  S
C2339      C2340   1.406       .  A
C2340      C2341   1.425       .  A
C2340      H2345   1.083       .  S
C2341      C2342   1.454       .  A
C2342      C2346   1.519       .  S
C2343      C2348   1.405       .  A
C2343      C2352   1.395       .  A
C2344      H2360   1.111       .  S
C2344      H2361   1.110       .  S
C2344      H2362   1.111       .  S
C2346      H2357   1.112       .  S
C2346      H2358   1.110       .  S
C2346      H2359   1.095       .  S
C2348      C2353   1.508       .  S
C2348      C2349   1.404       .  A
C2349      C2350   1.423       .  A
C2349      H2354   1.077       .  S
C2350      C2351   1.439       .  A
C2351      C2355   1.511       .  S
C2351      C2352   1.410       .  A
C2352      H2356   1.084       .  S
C2353      H2363   1.111       .  S
C2353      H2364   1.110       .  S
C2353      H2365   1.110       .  S
C2355      H2366   1.107       .  S
C2355      H2367   1.104       .  S
C2355      H2368   1.111       .  S
