geometry optimzed in LAMMPS
_audit_creation_date              2020-11-30 
_audit_creation_method            'lammps2cif' 
_symmetry_space_group_name_H-M    'P1' 
_symmetry_Int_Tables_number       1 
_symmetry_cell_setting            triclinic 
loop_ 
_symmetry_equiv_pos_as_xyz 
  x,y,z 
_cell_length_a                    25.66751748 
_cell_length_b                    25.89704690672318 
_cell_length_c                    25.940270523993636 
_cell_angle_alpha                 90.07380063548723 
_cell_angle_beta                  90.01649162541973 
_cell_angle_gamma                 90.00344174507073 
loop_ 
_atom_site_label 
_atom_site_type_symbol 
_atom_site_fract_x 
_atom_site_fract_y 
_atom_site_fract_z 
_atom_site_charge 
O1          O  0.44639336  0.40526669  0.54601908    -0.74400
C2          C  0.56083599  0.39548499  0.42036165     0.86600
O3          O  0.59368057  0.50320461  0.60411483    -0.75600
O4          O  0.59646977  0.56106712  0.42440881    -0.77000
O5          O  0.40976467  0.55192654  0.43617452    -0.76800
O6          O  0.39012801  0.47002686  0.53587044    -0.75500
Zn7        Zn  0.51602231  0.43225734  0.52272018     1.55700
O8          O  0.47632241  0.54085270  0.38189235    -0.76900
Cd9        Cd  0.43755353  0.52754788  0.50676534     1.59700
Cd10       Cd  0.55638016  0.54927496  0.54876863     1.59600
O11         O  0.43059109  0.58891717  0.55680164    -0.76800
O12         O  0.51167833  0.50446813  0.50237499    -1.87400
Cd13       Cd  0.53449171  0.51078788  0.42891787     1.59900
O14         O  0.51044185  0.60410011  0.58760645    -0.76800
O15         O  0.55897069  0.44023198  0.40016165    -0.75500
C16         C  0.59120255  0.45453825  0.61158159     0.87100
C17         C  0.40090424  0.42429806  0.55015659     0.86700
O18         O  0.54498114  0.38673956  0.46600092    -0.74400
C19         C  0.42996077  0.55547619  0.39152137     0.87500
O20         O  0.56369465  0.42499995  0.58341839    -0.74500
C21         C  0.46170663  0.61391302  0.58569330     0.87700
C22         C  0.62200617  0.58841037  0.45643922     0.88000
O23         O  0.61234561  0.58846837  0.50474946    -0.76900
O24         O  0.06943509  0.40471618  0.46741604    -0.74400
C25         C  0.95534083  0.39223171  0.59366939     0.86600
O26         O  0.91973547  0.50335135  0.41465472    -0.75600
O27         O  0.91933349  0.55735135  0.59556529    -0.77000
O28         O  0.10646394  0.54817656  0.58088996    -0.76800
O29         O  0.12553662  0.46919095  0.47968916    -0.75500
Zn30       Zn  0.99973805  0.43097682  0.49217012     1.55700
O31         O  0.04076637  0.53584539  0.63588720    -0.76900
Cd32       Cd  0.07774400  0.52550455  0.51031417     1.59700
Cd33       Cd  0.95794498  0.54818496  0.47044797     1.59600
O34         O  0.08400086  0.58732025  0.46127124    -0.76800
O35         O  0.00363914  0.50253622  0.51483011    -1.87400
Cd36       Cd  0.98168588  0.50753725  0.58865018     1.59900
O37         O  0.00370261  0.60310904  0.43182265    -0.76800
O38         O  0.95733331  0.43641937  0.61510342    -0.75500
C39         C  0.92262964  0.45499452  0.40549395     0.87100
C40         C  0.11491407  0.42395150  0.46385528     0.86700
O41         O  0.97118813  0.38439720  0.54784639    -0.74400
C42         C  0.08707484  0.55046130  0.62592952     0.87500
O43         O  0.95118552  0.42496475  0.43198714    -0.74500
C44         C  0.05254463  0.61253463  0.43303294     0.87700
C45         C  0.89300032  0.58503017  0.56452509     0.88000
O46         O  0.90220110  0.58624767  0.51612194    -0.76900
O47         O  0.44686472  0.60927635  0.97028762    -0.74400
C48         C  0.56114209  0.61866406  0.09624924     0.86600
O49         O  0.59344726  0.51073884  0.91245228    -0.75600
O50         O  0.59622726  0.45294219  0.09214592    -0.77000
O51         O  0.40945291  0.46281776  0.08099590    -0.76800
O52         O  0.39002371  0.54514301  0.98126935    -0.75500
Zn53       Zn  0.51627222  0.58203233  0.99388788     1.55700
O54         O  0.47631335  0.47335475  0.13504625    -0.76900
Cd55       Cd  0.43712875  0.48730270  0.01033934     1.59700
Cd56       Cd  0.55575725  0.46490301  0.96784145     1.59600
O57         O  0.42957872  0.42609465  0.96014388    -0.76800
O58         O  0.51145559  0.50989724  0.01441005    -1.87400
Cd59       Cd  0.53439987  0.50342413  0.08784710     1.59900
O60         O  0.50921437  0.41055552  0.92899909    -0.76800
O61         O  0.55914332  0.57394098  0.11649787    -0.75500
C62         C  0.59136246  0.55944205  0.90505810     0.87100
C63         C  0.40119288  0.59061078  0.96644442     0.86700
O64         O  0.54530463  0.62743973  0.05060531    -0.74400
C65         C  0.42984041  0.45894413  0.12555516     0.87500
O66         O  0.56409567  0.58910780  0.93329106    -0.74500
C67         C  0.46042362  0.40102475  0.93104398     0.87700
C68         C  0.62137616  0.42532580  0.06006233     0.88000
O69         O  0.61145094  0.42520944  0.01179575    -0.76900
O70         O  0.46797017  0.03852050  0.62537497    -0.74400
C71         C  0.55045810  0.89277361  0.58544898     0.86600
O72         O  0.60170699  0.08790924  0.50752740    -0.75600
O73         O  0.55726072  0.92604444  0.42076952    -0.77000
O74         O  0.37974453  0.96884135  0.47427902    -0.76800
O75         O  0.40028169  0.05285207  0.57355753    -0.75500
Zn76       Zn  0.52329913  0.00751167  0.57874822     1.55700
O77         O  0.43553589  0.90432256  0.45895841    -0.76900
Cd78       Cd  0.42716178  0.02711443  0.50276900     1.59700
Cd79       Cd  0.54631512  0.05035710  0.46158836     1.59600
O80         O  0.42006936  0.08897346  0.45327547    -0.76800
O81         O  0.50161249  0.00454724  0.50687747    -1.87400
Cd82       Cd  0.50712465  0.93138239  0.48268017     1.59900
O83         O  0.50027704  0.10646129  0.42464112    -0.76800
O84         O  0.53676029  0.88301118  0.53930318    -0.75500
C85         C  0.61078649  0.08407789  0.55575665     0.87100
C86         C  0.42215647  0.05560233  0.61752412     0.86700
O87         O  0.54609546  0.93764109  0.60510049    -0.74400
C88         C  0.38993008  0.92356461  0.45792928     0.87500
O89         O  0.58455268  0.05462482  0.58505485    -0.74500
C90         C  0.45136728  0.11559618  0.42610775     0.87700
C91         C  0.58518939  0.95784078  0.39562370     0.88000
O92         O  0.58576310  0.00616500  0.40568324    -0.76900
O93         O  0.06992483  0.60901661  0.04963552    -0.74400
C94         C  0.95528905  0.62238511  0.92356382     0.86600
O95         O  0.92014613  0.51005841  0.10161454    -0.75600
O96         O  0.91932323  0.45721288  0.92069665    -0.77000
O97         O  0.10643060  0.46625443  0.93492911    -0.76800
O98         O  0.12600018  0.54466549  0.03666664    -0.75500
Zn99       Zn  0.00017348  0.58300260  0.02464502     1.55700
O100        O  0.04050472  0.47904113  0.88024652    -0.76900
Cd101      Cd  0.07808016  0.48857417  0.00575088     1.59700
Cd102      Cd  0.95842764  0.46563391  0.04567822     1.59600
O103        O  0.08448187  0.42654454  0.05453747    -0.76800
O104        O  0.00397388  0.51159476  0.00153585    -1.87400
Cd105      Cd  0.98164854  0.50705981  0.92780472     1.59900
O106        O  0.00426262  0.41076304  0.08415043    -0.76800
O107        O  0.95714049  0.57830346  0.90190944    -0.75500
C108        C  0.92308336  0.55834257  0.11108558     0.87100
C109        C  0.11541233  0.58974794  0.05295962     0.86700
O110        O  0.97144162  0.63000054  0.96933452    -0.74400
C111        C  0.08681093  0.46425703  0.88995664     0.87500
O112        O  0.95167808  0.58853602  0.08483844    -0.74500
C113        C  0.05308670  0.40133529  0.08283596     0.87700
C114        C  0.89327532  0.42916592  0.95162829     0.88000
O115        O  0.90274687  0.42759007  0.99996447    -0.76900
O116        O  0.04587448  0.04337530  0.39375839    -0.74400
C117        C  0.96573310  0.89813197  0.42741341     0.86600
O118        O  0.91028271  0.09071299  0.50933385    -0.75600
O119        O  0.95413925  0.92751844  0.59185672    -0.77000
O120        O  0.13392109  0.96840690  0.54446150    -0.76800
O121        O  0.11511018  0.05180549  0.44500904    -0.75500
Zn122      Zn  0.98999387  0.01241635  0.43819372     1.55700
O123        O  0.07729401  0.90451178  0.55804090    -0.76900
Cd124      Cd  0.08689703  0.02688954  0.51516977     1.59700
Cd125      Cd  0.96650247  0.05248439  0.55412590     1.59600
O126        O  0.09333384  0.08858261  0.56446443    -0.76800
O127        O  0.01191722  0.00672929  0.50956331    -1.87400
Cd128      Cd  0.00663684  0.93327823  0.53218817     1.59900
O129        O  0.01276444  0.10752566  0.59157567    -0.76800
O130        O  0.97919399  0.88689019  0.47323837    -0.75500
C131        C  0.90108361  0.08744788  0.46108251     0.87100
C132        C  0.09273174  0.05713050  0.40157408     0.86700
O133        O  0.96895960  0.94367230  0.40948150    -0.74400
C134        C  0.12314932  0.92313147  0.56030689     0.87500
O135        O  0.92803063  0.05892586  0.43146103    -0.74500
C136        C  0.06182300  0.11572913  0.59088082     0.87700
C137        C  0.92644326  0.95931331  0.61733877     0.88000
O138        O  0.92694265  0.00784881  0.60878611    -0.76900
O139        O  0.46726454  0.97672017  0.89069787    -0.74400
C140        C  0.54992160  0.12196043  0.93093684     0.86600
O141        O  0.60119163  0.92646290  0.00794031    -0.75600
O142        O  0.55659718  0.08791301  0.09552055    -0.77000
O143        O  0.37934635  0.04508970  0.04234390    -0.76800
O144        O  0.39984070  0.96159812  0.94263368    -0.75500
Zn145      Zn  0.52272476  0.00724993  0.93730574     1.55700
O146        O  0.43505150  0.10975644  0.05741194    -0.76900
Cd147      Cd  0.42674643  0.98697983  0.01353997     1.59700
Cd148      Cd  0.54592294  0.96377841  0.05414915     1.59600
O149        O  0.41981472  0.92502948  0.06304384    -0.76800
O150        O  0.50110670  0.00977844  0.00918747    -1.87400
Cd151      Cd  0.50659310  0.08289424  0.03350712     1.59900
O152        O  0.50015969  0.90761424  0.09132429    -0.76800
O153        O  0.53622460  0.13158941  0.97710500    -0.75500
C154        C  0.61018813  0.93051151  0.95972023     0.87100
C155        C  0.42155956  0.95940353  0.89856779     0.86700
O156        O  0.54553705  0.07715308  0.91117795    -0.74400
C157        C  0.38951421  0.09038056  0.05867376     0.87500
O158        O  0.58390842  0.96009845  0.93058278    -0.74500
C159        C  0.45124709  0.89846896  0.09014374     0.87700
C160        C  0.58456236  0.05601754  0.12050779     0.88000
O161        O  0.58533483  0.00777580  0.11012726    -0.76900
O162        O  0.04624932  0.96978440  0.12134602    -0.74400
C163        C  0.96479468  0.11486769  0.08845637     0.86600
O164        O  0.91030007  0.92240464  0.00607106    -0.75600
O165        O  0.95309950  0.08582595  0.92376456    -0.77000
O166        O  0.13316818  0.04604744  0.97071020    -0.76800
O167        O  0.11539449  0.96210034  0.06992375    -0.75500
Zn168      Zn  0.99004662  0.00080828  0.07724037     1.55700
O169        O  0.07618293  0.10973408  0.95758112    -0.76900
Cd170      Cd  0.08665959  0.98719195  0.99997398     1.59700
Cd171      Cd  0.96628774  0.96090512  0.96123651     1.59600
O172        O  0.09329728  0.92566820  0.95055530    -0.76800
O173        O  0.01157066  0.00686636  0.00580122    -1.87400
Cd174      Cd  0.00570463  0.08035793  0.98340885     1.59900
O175        O  0.01275526  0.90606325  0.92378229    -0.76800
O176        O  0.97784792  0.12629588  0.04256020    -0.75500
C177        C  0.90132779  0.92551690  0.05437049     0.87100
C178        C  0.09317130  0.95634297  0.11337080     0.86700
O179        O  0.96867332  0.06934447  0.10632466    -0.74400
C180        C  0.12212974  0.09134134  0.95510307     0.87500
O181        O  0.92833153  0.95403689  0.08395248    -0.74500
C182        C  0.06187669  0.89823208  0.92432043     0.87700
C183        C  0.92560636  0.05390912  0.89819593     0.88000
O184        O  0.92644097  0.00535483  0.90661103    -0.76900
O185        O  0.79619066  0.64128036  0.22449679    -0.74400
C186        C  0.71409134  0.67925860  0.37032225     0.86600
O187        O  0.66132944  0.76006692  0.17762791    -0.75600
O188        O  0.70718814  0.84472226  0.33919174    -0.77000
O189        O  0.88417659  0.79316947  0.29436488    -0.76800
O190        O  0.86413919  0.69316509  0.21148959    -0.75500
Zn191      Zn  0.74084548  0.68757799  0.25584360     1.55700
O192        O  0.82901122  0.80649037  0.35974046    -0.76900
Cd193      Cd  0.83672347  0.76394965  0.23668116     1.59700
Cd194      Cd  0.71754232  0.80541499  0.21456872     1.59600
O195        O  0.84317873  0.81277204  0.17437863    -0.76800
O196        O  0.76245232  0.75950379  0.25957709    -1.87400
Cd197      Cd  0.75730295  0.78273210  0.33295743     1.59900
O198        O  0.76295182  0.84190750  0.15777768    -0.76800
O199        O  0.72793458  0.72531396  0.38068626    -0.75500
C200        C  0.65254426  0.71166493  0.18069116     0.87100
C201        C  0.84223580  0.64920248  0.20814004     0.86700
O202        O  0.71824357  0.66024103  0.32523718    -0.74400
C203        C  0.87432471  0.80860674  0.33995030     0.87500
O204        O  0.67938693  0.68187497  0.20909766    -0.74500
C205        C  0.81169714  0.83992857  0.14796893     0.87700
C206        C  0.67959901  0.87072570  0.30779503     0.88000
O207        O  0.67907369  0.86149244  0.25938436    -0.76900
O208        O  0.81837319  0.29366179  0.65662268    -0.74400
C209        C  0.70203896  0.16937761  0.64865332     0.86600
O210        O  0.67136267  0.35479430  0.75363959    -0.75600
O211        O  0.66776419  0.17552529  0.81409838    -0.77000
O212        O  0.85408880  0.18585238  0.80464816    -0.76800
O213        O  0.87437147  0.28407562  0.72162599    -0.75500
Zn214      Zn  0.74838807  0.27177675  0.68393123     1.55700
O215        O  0.78746826  0.13155848  0.79359538    -0.76900
Cd216      Cd  0.82669927  0.25638020  0.77944064     1.59700
Cd217      Cd  0.70823216  0.29966854  0.80033032     1.59600
O218        O  0.83404701  0.30733805  0.83996399    -0.76800
O219        O  0.75260559  0.25226349  0.75627722    -1.87400
Cd220      Cd  0.72940393  0.17889082  0.76349942     1.59900
O221        O  0.75440688  0.33894480  0.85457396    -0.76800
O222        O  0.70398480  0.14960846  0.69353494    -0.75500
C223        C  0.67409812  0.36180261  0.70500046     0.87100
C224        C  0.86386801  0.29761712  0.67568668     0.86700
O225        O  0.71840924  0.21479926  0.63932469    -0.74400
C226        C  0.83383332  0.14116109  0.80827758     0.87500
O227        O  0.70150887  0.33311311  0.67590089    -0.74500
C228        C  0.80310611  0.33681029  0.86448255     0.87700
C229        C  0.64228968  0.20810994  0.84083084     0.88000
O230        O  0.65200532  0.25648505  0.84006274    -0.76900
O231        O  0.19633690  0.79875108  0.85894148    -0.74400
C232        C  0.31085124  0.67270394  0.87022775     0.86600
O233        O  0.34500680  0.85248730  0.75893024    -0.75600
O234        O  0.34508635  0.67054631  0.70496447    -0.77000
O235        O  0.15780186  0.68602738  0.71641886    -0.76800
O236        O  0.14019081  0.78792525  0.79435444    -0.75500
Zn237      Zn  0.26596172  0.77440305  0.83190742     1.55700
O238        O  0.22344282  0.63073098  0.72820205    -0.76900
Cd239      Cd  0.18736090  0.75673696  0.73797631     1.59700
Cd240      Cd  0.30719450  0.79603025  0.71460153     1.59600
O241        O  0.18105169  0.80536949  0.67587591    -0.76800
O242        O  0.26158071  0.75179609  0.76047263    -1.87400
Cd243      Cd  0.28324183  0.67777224  0.75536425     1.59900
O244        O  0.26146460  0.83417121  0.65945558    -0.76800
O245        O  0.30828281  0.65116977  0.82616809    -0.75500
C246        C  0.34210499  0.86182233  0.80717370     0.87100
C247        C  0.15088021  0.80293713  0.83978035     0.86700
O248        O  0.29530743  0.71870674  0.87809038    -0.74400
C249        C  0.17692792  0.64078627  0.71430610     0.87500
O250        O  0.31396650  0.83508241  0.83733911    -0.74500
C251        C  0.21258808  0.83315662  0.65026315     0.87700
C252        C  0.37174659  0.70162910  0.67762054     0.88000
O253        O  0.36300229  0.75020406  0.67681851    -0.76900
O254        O  0.19581450  0.21554503  0.65673304    -0.74400
C255        C  0.30999908  0.34211714  0.64561980     0.86600
O256        O  0.34475052  0.16258384  0.75686241    -0.75600
O257        O  0.34385949  0.34444463  0.81109421    -0.77000
O258        O  0.15682217  0.32862414  0.79905579    -0.76800
O259        O  0.13942886  0.22655132  0.72105806    -0.75500
Zn260      Zn  0.26533095  0.24025351  0.68379722     1.55700
O261        O  0.22244941  0.38392732  0.78727116    -0.76900
Cd262      Cd  0.18646801  0.25792109  0.77752341     1.59700
Cd263      Cd  0.30639533  0.21876314  0.80121882     1.59600
O264        O  0.18011948  0.20936342  0.83964970    -0.76800
O265        O  0.26076015  0.26287978  0.75522754    -1.87400
Cd266      Cd  0.28229691  0.33693812  0.76038831     1.59900
O267        O  0.26048594  0.18043707  0.85614629    -0.76800
O268        O  0.30746952  0.36356165  0.68971484    -0.75500
C269        C  0.34206475  0.15327362  0.70858555     0.87100
C270        C  0.15029734  0.21135789  0.67573314     0.86700
O271        O  0.29442165  0.29613585  0.63765288    -0.74400
C272        C  0.17595123  0.37387109  0.80115027     0.87500
O273        O  0.31378058  0.17984310  0.67837665    -0.74500
C274        C  0.21159441  0.18152086  0.86528453     0.87700
C275        C  0.37041312  0.31345874  0.83865165     0.88000
O276        O  0.36179093  0.26485505  0.83940598    -0.76900
O277        O  0.21769450  0.87020169  0.22317450    -0.74400
C278        C  0.29878574  0.83594587  0.36827663     0.86600
O279        O  0.35403344  0.75668275  0.17455430    -0.75600
O280        O  0.31086816  0.67116785  0.33699900    -0.77000
O281        O  0.13105127  0.71843265  0.29760616    -0.76800
O282        O  0.14921808  0.81801141  0.21391189    -0.75500
Zn283      Zn  0.27411687  0.82618987  0.25404640     1.55700
O284        O  0.18792388  0.70473330  0.36115666    -0.76900
Cd285      Cd  0.17789845  0.74804490  0.23915039     1.59700
Cd286      Cd  0.29866569  0.71080980  0.21281406     1.59600
O287        O  0.17183853  0.69869084  0.17749647    -0.76800
O288        O  0.25287403  0.75440867  0.25913716    -1.87400
Cd289      Cd  0.25841779  0.73102525  0.33224956     1.59900
O290        O  0.25275743  0.67335040  0.15762247    -0.76800
O291        O  0.28600275  0.78972450  0.37899604    -0.75500
C292        C  0.36267882  0.80510298  0.17804506     0.87100
C293        C  0.17110384  0.86179157  0.20885329     0.86700
O294        O  0.29497564  0.85446081  0.32305640    -0.74400
C295        C  0.14199880  0.70241002  0.34272088     0.87500
O296        O  0.33579785  0.83418371  0.20720359    -0.74500
C297        C  0.20364362  0.67319572  0.14981633     0.87700
C298        C  0.33879606  0.64630583  0.30493672     0.88000
O299        O  0.33861010  0.65578539  0.25665276    -0.76900
O300        O  0.79568680  0.37199234  0.29196664    -0.74400
C301        C  0.71328632  0.33410478  0.14601028     0.86600
O302        O  0.66052593  0.25374297  0.33891941    -0.75600
O303        O  0.70618228  0.16872913  0.17737059    -0.77000
O304        O  0.88325507  0.21987199  0.22169819    -0.76800
O305        O  0.86352451  0.31993150  0.30488038    -0.75500
Zn306      Zn  0.74016613  0.32587101  0.26051358     1.55700
O307        O  0.82789430  0.20648330  0.15648809    -0.76900
Cd308      Cd  0.83593253  0.24924473  0.27945477     1.59700
Cd309      Cd  0.71658540  0.20819855  0.30191812     1.59600
O310        O  0.84235904  0.20021380  0.34155891    -0.76800
O311        O  0.76159586  0.25389273  0.25677333    -1.87400
Cd312      Cd  0.75635672  0.23059749  0.18341469     1.59900
O313        O  0.76207234  0.17146457  0.35853502    -0.76800
O314        O  0.72697478  0.28799979  0.13567146    -0.75500
C315        C  0.65182609  0.30215917  0.33575736     0.87100
C316        C  0.84171684  0.36393646  0.30834838     0.86700
O317        O  0.71760205  0.35317028  0.19106729    -0.74400
C318        C  0.87325578  0.20428834  0.17618275     0.87500
O319        O  0.67869161  0.33181654  0.30724175    -0.74500
C320        C  0.81089399  0.17315646  0.36806796     0.87700
C321        C  0.67854722  0.14284127  0.20879286     0.88000
O322        O  0.67796257  0.15217956  0.25717828    -0.76900
O323        O  0.21734959  0.14377904  0.29301655    -0.74400
C324        C  0.29883036  0.17798956  0.14872432     0.86600
O325        O  0.35368645  0.25752236  0.34237933    -0.75600
O326        O  0.31109266  0.34278497  0.17993244    -0.77000
O327        O  0.13113238  0.29591009  0.21881787    -0.76800
O328        O  0.14866052  0.19577324  0.30169101    -0.75500
Zn329      Zn  0.27391638  0.18789662  0.26280915     1.55700
O330        O  0.18821915  0.30919370  0.15539248    -0.76900
Cd331      Cd  0.17761854  0.26594289  0.27737409     1.59700
Cd332      Cd  0.29829417  0.30334060  0.30410719     1.59600
O333        O  0.17136231  0.31481425  0.33942577    -0.76800
O334        O  0.25267534  0.25965533  0.25767588    -1.87400
Cd335      Cd  0.25856591  0.28295732  0.18459080     1.59900
O336        O  0.25219504  0.34049490  0.35931168    -0.76800
O337        O  0.28608902  0.22419984  0.13794280    -0.75500
C338        C  0.36228733  0.20909154  0.33897319     0.87100
C339        C  0.17056768  0.15200774  0.30674512     0.86700
O340        O  0.29503181  0.15955392  0.19396520    -0.74400
C341        C  0.14226122  0.31171419  0.17367633     0.87500
O342        O  0.33535696  0.17995537  0.30990456    -0.74500
C343        C  0.20309368  0.34036472  0.36717112     0.87700
C344        C  0.33878126  0.36782576  0.21208016     0.88000
O345        O  0.33829355  0.35850833  0.26040254    -0.76900
O346        O  0.81809942  0.72102679  0.86038040    -0.74400
C347        C  0.70187824  0.84522601  0.86712369     0.86600
O348        O  0.67141504  0.65920705  0.76284020    -0.75600
O349        O  0.66854647  0.83886154  0.70192927    -0.77000
O350        O  0.85476012  0.82757277  0.71170389    -0.76800
O351        O  0.87423443  0.72973780  0.79538725    -0.75500
Zn352      Zn  0.74817189  0.74255137  0.83252506     1.55700
O353        O  0.78840537  0.88223818  0.72231324    -0.76900
Cd354      Cd  0.82690025  0.75730414  0.73721506     1.59700
Cd355      Cd  0.70819380  0.71448535  0.71611915     1.59600
O356        O  0.83409269  0.70621725  0.67678225    -0.76800
O357        O  0.75275877  0.76181672  0.76012383    -1.87400
Cd358      Cd  0.73009903  0.83532909  0.75257260     1.59900
O359        O  0.75423665  0.67535255  0.66165401    -0.76800
O360        O  0.70455055  0.86501353  0.82229058    -0.75500
C361        C  0.67414804  0.65222567  0.81149785     0.87100
C362        C  0.86361945  0.71674633  0.84145863     0.86700
O363        O  0.71775991  0.79967030  0.87662971    -0.74400
C364        C  0.83473047  0.87233445  0.70774892     0.87500
O365        O  0.70145683  0.68104524  0.84058615    -0.74500
C366        C  0.80299208  0.67715105  0.65195346     0.87700
C367        C  0.64268005  0.80633382  0.67549510     0.88000
O368        O  0.65196672  0.75787674  0.67652807    -0.76900
C369        C  0.91363484  0.18038169  0.14652501    -0.09200
C370        C  0.94122331  0.15350821  0.12028469    -0.10800
C371        C  0.12087708  0.93041238  0.15360442    -0.09200
C372        C  0.14347506  0.90185910  0.18254464    -0.10800
C373        C  0.16199600  0.12210229  0.93108969    -0.09200
C374        C  0.18944249  0.14887586  0.90435423    -0.10800
C375        C  0.11147054  0.82889007  0.86920755    -0.09200
C376        C  0.08414711  0.85766849  0.89378818    -0.10800
C377        C  0.86395389  0.10131651  0.83268893    -0.09200
C378        C  0.89144022  0.07487848  0.85965770    -0.10800
C379        C  0.86087177  0.89501837  0.07792868    -0.09200
C380        C  0.83354930  0.87011123  0.10662997    -0.10800
C381        C  0.64551707  0.10326921  0.18725403    -0.09200
C382        C  0.61770406  0.07684270  0.16032510    -0.10800
C383        C  0.34914507  0.12010227  0.08249749    -0.09200
C384        C  0.32187683  0.14637854  0.10963574    -0.10800
C385        C  0.42925293  0.85778316  0.12126539    -0.09200
C386        C  0.40240097  0.82931035  0.14700898    -0.10800
C387        C  0.64980037  0.89956721  0.93573728    -0.09200
C388        C  0.67717834  0.87444672  0.90741010    -0.10800
C389        C  0.60234437  0.18796833  0.87403564    -0.09200
C390        C  0.57453590  0.16166379  0.90083818    -0.10800
C391        C  0.39485377  0.93278216  0.85765085    -0.09200
C392        C  0.37177635  0.90316031  0.82980969    -0.10800
C393        C  0.11103842  0.18522183  0.64622111    -0.09200
C394        C  0.08390982  0.15634940  0.62150723    -0.10800
C395        C  0.12016901  0.08301420  0.36119392    -0.09200
C396        C  0.14274756  0.11172958  0.33244492    -0.10800
C397        C  0.89244273  0.93823607  0.65595330    -0.09200
C398        C  0.86502008  0.91189539  0.68307569    -0.10800
C399        C  0.83288365  0.14276070  0.40918638    -0.09200
C400        C  0.86042326  0.11780424  0.43765520    -0.10800
C401        C  0.16318050  0.89261567  0.58435415    -0.09200
C402        C  0.19055524  0.86583156  0.61115303    -0.10800
C403        C  0.91482278  0.83231831  0.36957186    -0.09200
C404        C  0.94240435  0.85923815  0.39575711    -0.10800
C405        C  0.18189323  0.64285516  0.10884287    -0.09200
C406        C  0.15490743  0.61857455  0.07949675    -0.10800
C407        C  0.07523470  0.36250050  0.11580708    -0.09200
C408        C  0.10250973  0.33586340  0.14286744    -0.10800
C409        C  0.11747586  0.44110442  0.84993107    -0.09200
C410        C  0.14452637  0.41391711  0.82334362    -0.10800
C411        C  0.86927005  0.60854678  0.18141178    -0.09200
C412        C  0.89285573  0.58095253  0.15197488    -0.10800
C413        C  0.93082129  0.66384742  0.89621988    -0.09200
C414        C  0.90311563  0.69240562  0.87194015    -0.10800
C415        C  0.82559176  0.36985910  0.90327606    -0.09200
C416        C  0.85310513  0.39703134  0.92972208    -0.10800
C417        C  0.40214172  0.18494534  0.36986373    -0.09200
C418        C  0.42919650  0.15640146  0.39530414    -0.10800
C419        C  0.61855065  0.93680459  0.35606028    -0.09200
C420        C  0.64651964  0.91029434  0.32934790    -0.10800
C421        C  0.67763218  0.14029071  0.60807364    -0.09200
C422        C  0.65039828  0.11514853  0.57960818    -0.10800
C423        C  0.60275568  0.82664616  0.64236337    -0.09200
C424        C  0.57501764  0.85309767  0.61562705    -0.10800
C425        C  0.37212660  0.11214156  0.68597762    -0.09200
C426        C  0.39542838  0.08251505  0.65828916    -0.10800
C427        C  0.34946193  0.89372080  0.43436590    -0.09200
C428        C  0.32199736  0.86745892  0.40737781    -0.10800
C429        C  0.33513101  0.64489006  0.91149679    -0.09200
C430        C  0.36222668  0.62063561  0.94066155    -0.10800
C431        C  0.39986278  0.43431092  0.16532322    -0.09200
C432        C  0.37268984  0.40688020  0.19159632    -0.10800
C433        C  0.58518332  0.65965722  0.12502539    -0.09200
C434        C  0.61251881  0.68819143  0.14994735    -0.10800
C435        C  0.68875339  0.36491090  0.10680087    -0.09200
C436        C  0.66109360  0.39202798  0.08063031    -0.10800
C437        C  0.64496564  0.61145944  0.83582680    -0.09200
C438        C  0.62105945  0.58316302  0.86435175    -0.10800
C439        C  0.43773518  0.36207992  0.89823920    -0.09200
C440        C  0.41028928  0.33555431  0.87104663    -0.10800
C441        C  0.15433974  0.39489570  0.43751374    -0.09200
C442        C  0.18128439  0.37054157  0.40821578    -0.10800
C443        C  0.85279910  0.61713714  0.58640392    -0.09200
C444        C  0.82533966  0.64422469  0.61298116    -0.10800
C445        C  0.14540036  0.60076052  0.69215359    -0.09200
C446        C  0.11806451  0.57365723  0.66572999    -0.10800
C447        C  0.93105885  0.35086606  0.62130035    -0.09200
C448        C  0.90344901  0.32219462  0.64553461    -0.10800
C449        C  0.10207443  0.67818580  0.37327310    -0.09200
C450        C  0.07466943  0.65144453  0.40011139    -0.10800
C451        C  0.89242694  0.43212910  0.36466340    -0.09200
C452        C  0.86884200  0.40449361  0.33521866    -0.10800
C453        C  0.37267493  0.60729867  0.32547429    -0.09200
C454        C  0.39989069  0.57995316  0.35176523    -0.10800
C455        C  0.62081581  0.43072425  0.65225252    -0.09200
C456        C  0.64479063  0.40245995  0.68072229    -0.10800
C457        C  0.33437228  0.36999750  0.60447667    -0.09200
C458        C  0.36168706  0.39431955  0.57559025    -0.10800
C459        C  0.68956487  0.64847697  0.40954289    -0.09200
C460        C  0.66186075  0.62147125  0.43576844    -0.10800
C461        C  0.43935421  0.65308175  0.61841929    -0.09200
C462        C  0.41187133  0.67966395  0.64548689    -0.10800
C463        C  0.61192141  0.32580983  0.36654040    -0.09200
C464        C  0.58472628  0.35442938  0.39152374    -0.10800
loop_ 
_geom_bond_atom_site_label_1 
_geom_bond_atom_site_label_2 
_geom_bond_distance 
_geom_bond_site_symmetry_2 
_ccdc_geom_bond_type 
O1           C17   1.272       .  A
O1           Zn7   2.012       .  S
C2           O18   1.273       .  A
C2           O15   1.273       .  A
C2          C464   1.437       .  S
O3           C16   1.277       .  A
O3          Cd10   2.099       .  S
O4           C22   1.273       .  A
O4          Cd13   2.059       .  S
O5           C19   1.273       .  A
O5           Cd9   2.065       .  S
O6           C17   1.272       .  A
O6           Cd9   2.067       .  S
Zn7          O18   2.026       .  S
Zn7          O20   2.003       .  S
Zn7          O12   1.947       .  S
O8           C19   1.274       .  A
O8          Cd13   2.080       .  S
Cd9          O11   2.058       .  S
Cd9          O12   1.998       .  S
Cd10         O14   2.102       .  S
Cd10         O23   2.098       .  S
Cd10         O12   2.027       .  S
O11          C21   1.272       .  A
O12         Cd13   2.001       .  S
Cd13         O15   2.070       .  S
O14          C21   1.277       .  A
C16          O20   1.271       .  A
C16         C455   1.440       .  S
C17         C458   1.433       .  S
C19         C454   1.436       .  S
C21         C461   1.441       .  S
C22          O23   1.278       .  A
C22         C460   1.438       .  S
O24          C40   1.273       .  A
O24         Zn30   2.019   1_455  S
C25          O41   1.272       .  A
C25          O38   1.273       .  A
C25         C447   1.432       .  S
O26          C39   1.277       .  A
O26         Cd33   2.097       .  S
O27          C45   1.273       .  A
O27         Cd36   2.063       .  S
O28          C42   1.271       .  A
O28         Cd32   2.058       .  S
O29          C40   1.271       .  A
O29         Cd32   2.064       .  S
Zn30         O41   2.021       .  S
Zn30         O43   2.003       .  S
Zn30         O35   1.946   1_655  S
O31          C42   1.274       .  A
O31         Cd36   2.082   1_455  S
Cd32         O34   2.052       .  S
Cd32         O35   1.996       .  S
Cd33         O37   2.100   1_655  S
Cd33         O46   2.103       .  S
Cd33         O35   2.025   1_655  S
O34          C44   1.271       .  A
O35         Cd36   2.000   1_455  S
Cd36         O38   2.063       .  S
O37          C44   1.278       .  A
C39          O43   1.271       .  A
C39         C451   1.439       .  S
C40         C441   1.434       .  S
C42         C446   1.434       .  S
C44         C450   1.439       .  S
C45          O46   1.278       .  A
C45         C443   1.441       .  S
O47          C63   1.272       .  A
O47         Zn53   2.012       .  S
C48          O64   1.272       .  A
C48          O61   1.273       .  A
C48         C433   1.436       .  S
O49          C62   1.277       .  A
O49         Cd56   2.101       .  S
O50          C68   1.273       .  A
O50         Cd59   2.059       .  S
O51          C65   1.273       .  A
O51         Cd55   2.066       .  S
O52          C63   1.272       .  A
O52         Cd55   2.068   1_556  S
Zn53         O64   2.024   1_556  S
Zn53         O66   2.003       .  S
Zn53         O58   1.947   1_556  S
O54          C65   1.274       .  A
O54         Cd59   2.081       .  S
Cd55         O57   2.059   1_554  S
Cd55         O58   1.998       .  S
Cd56         O60   2.102       .  S
Cd56         O69   2.098   1_556  S
Cd56         O58   2.027   1_556  S
O57          C67   1.272       .  A
O58         Cd59   2.001       .  S
Cd59         O61   2.070       .  S
O60          C67   1.278       .  A
C62          O66   1.271       .  A
C62         C438   1.441       .  S
C63         C430   1.433       .  S
C65         C431   1.437       .  S
C67         C439   1.441       .  S
C68          O69   1.278       .  A
C68         C436   1.438       .  S
O70          C86   1.273       .  A
O70         Zn76   2.031       .  S
C71          O87   1.273       .  A
C71          O84   1.273       .  A
C71         C424   1.438       .  S
O72          C85   1.277       .  A
O72         Cd79   2.094       .  S
O73          C91   1.272       .  A
O73         Cd82   2.063       .  S
O74          C88   1.274       .  A
O74         Cd78   2.074   1_565  S
O75          C86   1.273       .  A
O75         Cd78   2.071       .  S
Zn76         O87   2.022   1_545  S
Zn76         O89   1.997       .  S
Zn76         O81   1.947       .  S
O77          C88   1.273       .  A
O77         Cd82   2.060       .  S
Cd78         O80   2.062       .  S
Cd78         O81   2.001       .  S
Cd79         O83   2.105       .  S
Cd79         O92   2.106       .  S
Cd79         O81   2.027       .  S
O80          C90   1.272       .  A
O81         Cd82   2.000   1_545  S
Cd82         O84   2.076       .  S
O83          C90   1.278       .  A
C85          O89   1.271       .  A
C85         C422   1.436       .  S
C86         C426   1.440       .  S
C88         C427   1.431       .  S
C90         C418   1.443       .  S
C91          O92   1.278   1_565  A
C91         C419   1.443       .  S
O93         C109   1.273       .  A
O93         Zn99   2.019       .  S
C94         O110   1.273       .  A
C94         O107   1.273       .  A
C94         C413   1.433       .  S
O95         C108   1.276       .  A
O95        Cd102   2.095       .  S
O96         C114   1.273       .  A
O96        Cd105   2.064       .  S
O97         C111   1.272       .  A
O97        Cd101   2.058   1_556  S
O98         C109   1.271       .  A
O98        Cd101   2.065       .  S
Zn99        O110   2.022   1_454  S
Zn99        O112   2.002   1_455  S
Zn99        O104   1.946       .  S
O100        C111   1.274       .  A
O100       Cd105   2.081   1_455  S
Cd101       O103   2.053       .  S
Cd101       O104   1.996       .  S
Cd102       O106   2.098   1_655  S
Cd102       O115   2.101   1_554  S
Cd102       O104   2.025   1_655  S
O103        C113   1.271       .  A
O104       Cd105   2.000   1_454  S
Cd105       O107   2.063       .  S
O106        C113   1.277       .  A
C108        O112   1.271       .  A
C108        C412   1.438       .  S
C109        C406   1.434       .  S
C111        C409   1.434       .  S
C113        C407   1.438       .  S
C114        O115   1.278       .  A
C114        C416   1.441       .  S
O116        C132   1.270       .  A
O116       Zn122   2.008   1_455  S
C117        O133   1.271       .  A
C117        O130   1.272       .  A
C117        C404   1.430       .  S
O118        C131   1.276       .  A
O118       Cd125   2.101       .  S
O119        C137   1.272       .  A
O119       Cd128   2.058   1_655  S
O120        C134   1.273       .  A
O120       Cd124   2.081   1_565  S
O121        C132   1.272       .  A
O121       Cd124   2.063       .  S
Zn122       O133   2.003   1_545  S
Zn122       O135   2.003       .  S
Zn122       O127   1.941   1_655  S
O123        C134   1.273       .  A
O123       Cd128   2.072       .  S
Cd124       O126   2.052       .  S
Cd124       O127   1.999       .  S
Cd125       O129   2.093   1_655  S
Cd125       O138   2.093       .  S
Cd125       O127   2.024   1_655  S
O126        C136   1.272       .  A
O127       Cd128   1.996   1_545  S
Cd128       O130   2.067   1_455  S
O129        C136   1.277       .  A
C131        O135   1.270       .  A
C131        C400   1.441       .  S
C132        C395   1.430       .  S
C134        C401   1.439       .  S
C136        C394   1.434       .  S
C137        O138   1.277   1_565  A
C137        C397   1.437       .  S
O139        C155   1.273       .  A
O139       Zn145   2.027   1_565  S
C140        O156   1.273       .  A
C140        O153   1.273       .  A
C140        C390   1.438       .  S
O141        C154   1.276   1_554  A
O141       Cd148   2.093       .  S
O142        C160   1.272       .  A
O142       Cd151   2.062       .  S
O143        C157   1.274       .  A
O143       Cd147   2.074   1_545  S
O144        C155   1.273       .  A
O144       Cd147   2.071   1_556  S
Zn145       O156   2.021       .  S
Zn145       O158   1.997   1_545  S
Zn145       O150   1.947   1_556  S
O146        C157   1.272       .  A
O146       Cd151   2.059       .  S
Cd147       O149   2.064       .  S
Cd147       O150   2.001   1_565  S
Cd148       O152   2.105       .  S
Cd148       O161   2.104   1_565  S
Cd148       O150   2.026   1_565  S
O149        C159   1.272       .  A
O150       Cd151   2.000       .  S
Cd151       O153   2.077   1_554  S
O152        C159   1.278       .  A
C154        O158   1.271       .  A
C154        C387   1.436       .  S
C155        C391   1.439       .  S
C157        C383   1.431       .  S
C159        C385   1.443       .  S
C160        O161   1.278       .  A
C160        C382   1.442       .  S
O162        C178   1.271       .  A
O162       Zn168   2.009   1_465  S
C163        O179   1.271       .  A
C163        O176   1.272       .  A
C163        C370   1.431       .  S
O164        C177   1.276       .  A
O164       Cd171   2.101   1_554  S
O165        C183   1.273       .  A
O165       Cd174   2.058   1_655  S
O166        C180   1.273       .  A
O166       Cd170   2.080   1_545  S
O167        C178   1.272       .  A
O167       Cd170   2.064   1_554  S
Zn168       O179   2.004       .  S
Zn168       O181   2.002   1_545  S
Zn168       O173   1.940   1_655  S
O169        C180   1.274       .  A
O169       Cd174   2.074       .  S
Cd170       O172   2.051       .  S
Cd170       O173   1.999   1_566  S
Cd171       O175   2.093   1_655  S
Cd171       O184   2.093   1_565  S
Cd171       O173   2.025   1_666  S
O172        C182   1.272       .  A
O173       Cd174   1.996   1_554  S
Cd174       O176   2.068   1_456  S
O175        C182   1.277       .  A
C177        O181   1.270       .  A
C177        C379   1.441       .  S
C178        C371   1.431       .  S
C180        C373   1.439       .  S
C182        C376   1.434       .  S
C183        O184   1.277       .  A
C183        C378   1.437       .  S
O185        C201   1.273       .  A
O185       Zn191   2.029       .  S
C186        O202   1.273       .  A
C186        O199   1.273       .  A
C186        C459   1.438       .  S
O187        C200   1.276       .  A
O187       Cd194   2.092       .  S
O188        C206   1.273       .  A
O188       Cd197   2.063       .  S
O189        C203   1.273       .  A
O189       Cd193   2.071       .  S
O190        C201   1.273       .  A
O190       Cd193   2.069       .  S
Zn191       O202   2.020       .  S
Zn191       O204   1.995       .  S
Zn191       O196   1.946       .  S
O192        C203   1.273       .  A
O192       Cd197   2.061       .  S
Cd193       O195   2.060       .  S
Cd193       O196   2.000       .  S
Cd194       O198   2.104       .  S
Cd194       O207   2.105       .  S
Cd194       O196   2.027       .  S
O195        C205   1.272       .  A
O196       Cd197   2.000       .  S
Cd197       O199   2.078       .  S
O198        C205   1.278       .  A
C200        O204   1.270       .  A
C200        C434   1.435       .  S
C201        C411   1.438       .  S
C203        C403   1.430       .  S
C205        C380   1.442       .  S
C206        O207   1.278       .  A
C206        C420   1.443       .  S
O208        C224   1.272       .  A
O208       Zn214   2.013       .  S
C209        O225   1.273       .  A
C209        O222   1.273       .  A
C209        C421   1.437       .  S
O210        C223   1.277       .  A
O210       Cd217   2.099       .  S
O211        C229   1.273       .  A
O211       Cd220   2.058       .  S
O212        C226   1.272       .  A
O212       Cd216   2.064       .  S
O213        C224   1.271       .  A
O213       Cd216   2.065       .  S
Zn214       O225   2.026       .  S
Zn214       O227   2.004       .  S
Zn214       O219   1.947       .  S
O215        C226   1.274       .  A
O215       Cd220   2.082       .  S
Cd216       O218   2.058       .  S
Cd216       O219   1.997       .  S
Cd217       O221   2.101       .  S
Cd217       O230   2.097       .  S
Cd217       O219   2.027       .  S
O218        C228   1.272       .  A
O219       Cd220   2.000       .  S
Cd220       O222   2.071       .  S
O221        C228   1.277       .  A
C223        O227   1.271       .  A
C223        C456   1.440       .  S
C224        C448   1.432       .  S
C226        C377   1.437       .  S
C228        C415   1.441       .  S
C229        O230   1.278       .  A
C229        C389   1.438       .  S
O231        C247   1.273       .  A
O231       Zn237   2.021       .  S
C232        O248   1.273       .  A
C232        O245   1.273       .  A
C232        C429   1.433       .  S
O233        C246   1.276       .  A
O233       Cd240   2.097       .  S
O234        C252   1.273       .  A
O234       Cd243   2.065       .  S
O235        C249   1.271       .  A
O235       Cd239   2.059       .  S
O236        C247   1.270       .  A
O236       Cd239   2.063       .  S
Zn237       O248   2.022       .  S
Zn237       O250   2.002       .  S
Zn237       O242   1.946       .  S
O238        C249   1.274       .  A
O238       Cd243   2.082       .  S
Cd239       O241   2.052       .  S
Cd239       O242   1.996       .  S
Cd240       O244   2.098       .  S
Cd240       O253   2.102       .  S
Cd240       O242   2.026       .  S
O241        C251   1.271       .  A
O242       Cd243   2.000       .  S
Cd243       O245   2.065       .  S
O244        C251   1.277       .  A
C246        O250   1.271       .  A
C246        C392   1.438       .  S
C247        C375   1.434       .  S
C249        C445   1.434       .  S
C251        C402   1.438       .  S
C252        O253   1.278       .  A
C252        C462   1.442       .  S
O254        C270   1.273       .  A
O254       Zn260   2.021       .  S
C255        O271   1.273       .  A
C255        O268   1.273       .  A
C255        C457   1.433       .  S
O256        C269   1.277       .  A
O256       Cd263   2.099       .  S
O257        C275   1.273       .  A
O257       Cd266   2.065       .  S
O258        C272   1.272       .  A
O258       Cd262   2.059       .  S
O259        C270   1.270       .  A
O259       Cd262   2.064       .  S
Zn260       O271   2.022       .  S
Zn260       O273   2.003       .  S
Zn260       O265   1.946       .  S
O261        C272   1.274       .  A
O261       Cd266   2.080       .  S
Cd262       O264   2.052       .  S
Cd262       O265   1.997       .  S
Cd263       O267   2.100       .  S
Cd263       O276   2.103       .  S
Cd263       O265   2.026       .  S
O264        C274   1.271       .  A
O265       Cd266   2.000       .  S
Cd266       O268   2.063       .  S
O267        C274   1.277       .  A
C269        O273   1.271       .  A
C269        C425   1.440       .  S
C270        C393   1.434       .  S
C272        C410   1.434       .  S
C274        C374   1.438       .  S
C275        O276   1.278       .  A
C275        C440   1.442       .  S
O277        C293   1.271       .  A
O277       Zn283   2.010       .  S
C278        O294   1.272       .  A
C278        O291   1.272       .  A
C278        C428   1.431       .  S
O279        C292   1.277       .  A
O279       Cd286   2.102       .  S
O280        C298   1.272       .  A
O280       Cd289   2.057       .  S
O281        C295   1.273       .  A
O281       Cd285   2.083       .  S
O282        C293   1.272       .  A
O282       Cd285   2.063       .  S
Zn283       O294   2.006       .  S
Zn283       O296   2.007       .  S
Zn283       O288   1.942       .  S
O284        C295   1.273       .  A
O284       Cd289   2.074       .  S
Cd285       O287   2.052       .  S
Cd285       O288   2.000       .  S
Cd286       O290   2.092       .  S
Cd286       O299   2.093       .  S
Cd286       O288   2.024       .  S
O287        C297   1.272       .  A
O288       Cd289   1.997       .  S
Cd289       O291   2.068       .  S
O290        C297   1.277       .  A
C292        O296   1.271       .  A
C292        C386   1.443       .  S
C293        C372   1.431       .  S
C295        C449   1.440       .  S
C297        C405   1.434       .  S
C298        O299   1.277       .  A
C298        C453   1.436       .  S
O300        C316   1.273       .  A
O300       Zn306   2.030       .  S
C301        O317   1.273       .  A
C301        O314   1.273       .  A
C301        C435   1.438       .  S
O302        C315   1.276       .  A
O302       Cd309   2.093       .  S
O303        C321   1.272       .  A
O303       Cd312   2.061       .  S
O304        C318   1.273       .  A
O304       Cd308   2.073       .  S
O305        C316   1.273       .  A
O305       Cd308   2.070       .  S
Zn306       O317   2.021       .  S
Zn306       O319   1.996       .  S
Zn306       O311   1.946       .  S
O307        C318   1.273       .  A
O307       Cd312   2.061       .  S
Cd308       O310   2.059       .  S
Cd308       O311   2.000       .  S
Cd309       O313   2.104       .  S
Cd309       O322   2.105       .  S
Cd309       O311   2.027       .  S
O310        C320   1.272       .  A
O311       Cd312   2.000       .  S
Cd312       O314   2.078       .  S
O313        C320   1.278       .  A
C315        O319   1.271       .  A
C315        C463   1.436       .  S
C316        C452   1.439       .  S
C318        C369   1.431       .  S
C320        C399   1.441       .  S
C321        O322   1.278       .  A
C321        C381   1.442       .  S
O323        C339   1.271       .  A
O323       Zn329   2.008       .  S
C324        O340   1.271       .  A
C324        O337   1.272       .  A
C324        C384   1.431       .  S
O325        C338   1.276       .  A
O325       Cd332   2.102       .  S
O326        C344   1.272       .  A
O326       Cd335   2.057       .  S
O327        C341   1.273       .  A
O327       Cd331   2.082       .  S
O328        C339   1.272       .  A
O328       Cd331   2.063       .  S
Zn329       O340   2.005       .  S
Zn329       O342   2.005       .  S
Zn329       O334   1.941       .  S
O330        C341   1.273       .  A
O330       Cd335   2.073       .  S
Cd331       O333   2.053       .  S
Cd331       O334   2.000       .  S
Cd332       O336   2.091       .  S
Cd332       O345   2.094       .  S
Cd332       O334   2.024       .  S
O333        C343   1.272       .  A
O334       Cd335   1.996       .  S
Cd335       O337   2.068       .  S
O336        C343   1.277       .  A
C338        O342   1.270       .  A
C338        C417   1.442       .  S
C339        C396   1.430       .  S
C341        C408   1.439       .  S
C343        C442   1.434       .  S
C344        O345   1.277       .  A
C344        C432   1.437       .  S
O346        C362   1.272       .  A
O346       Zn352   2.014       .  S
C347        O363   1.273       .  A
C347        O360   1.273       .  A
C347        C388   1.437       .  S
O348        C361   1.277       .  A
O348       Cd355   2.101       .  S
O349        C367   1.272       .  A
O349       Cd358   2.057       .  S
O350        C364   1.272       .  A
O350       Cd354   2.065       .  S
O351        C362   1.272       .  A
O351       Cd354   2.065       .  S
Zn352       O363   2.025       .  S
Zn352       O365   2.005       .  S
Zn352       O357   1.947       .  S
O353        C364   1.274       .  A
O353       Cd358   2.082       .  S
Cd354       O356   2.058       .  S
Cd354       O357   1.997       .  S
Cd355       O359   2.102       .  S
Cd355       O368   2.098       .  S
Cd355       O357   2.027       .  S
O356        C366   1.272       .  A
O357       Cd358   2.000       .  S
Cd358       O360   2.071       .  S
O359        C366   1.277       .  A
C361        O365   1.271       .  A
C361        C437   1.441       .  S
C362        C414   1.432       .  S
C364        C398   1.437       .  S
C366        C444   1.441       .  S
C367        O368   1.278       .  A
C367        C423   1.437       .  S
C369        C370   1.203       .  T
C371        C372   1.203       .  T
C373        C374   1.208       .  T
C375        C376   1.205       .  T
C377        C378   1.207       .  T
C379        C380   1.210       .  T
C381        C382   1.210       .  T
C383        C384   1.203       .  T
C385        C386   1.211       .  T
C387        C388   1.207       .  T
C389        C390   1.208       .  T
C391        C392   1.208       .  T
C393        C394   1.206       .  T
C395        C396   1.203       .  T
C397        C398   1.207       .  T
C399        C400   1.210       .  T
C401        C402   1.208       .  T
C403        C404   1.203       .  T
C405        C406   1.205       .  T
C407        C408   1.208       .  T
C409        C410   1.205       .  T
C411        C412   1.208       .  T
C413        C414   1.204       .  T
C415        C416   1.210       .  T
C417        C418   1.210       .  T
C419        C420   1.211       .  T
C421        C422   1.207       .  T
C423        C424   1.208       .  T
C425        C426   1.209       .  T
C427        C428   1.203       .  T
C429        C430   1.205       .  T
C431        C432   1.207       .  T
C433        C434   1.206       .  T
C435        C436   1.208       .  T
C437        C438   1.209       .  T
C439        C440   1.210       .  T
C441        C442   1.205       .  T
C443        C444   1.210       .  T
C445        C446   1.205       .  T
C447        C448   1.204       .  T
C449        C450   1.209       .  T
C451        C452   1.208       .  T
C453        C454   1.206       .  T
C455        C456   1.209       .  T
C457        C458   1.205       .  T
C459        C460   1.208       .  T
C461        C462   1.210       .  T
C463        C464   1.207       .  T
