geometry optimzed in LAMMPS
_audit_creation_date              2020-11-30 
_audit_creation_method            'lammps2cif' 
_symmetry_space_group_name_H-M    'P1' 
_symmetry_Int_Tables_number       1 
_symmetry_cell_setting            triclinic 
loop_ 
_symmetry_equiv_pos_as_xyz 
  x,y,z 
_cell_length_a                    26.28255676 
_cell_length_b                    27.08291034697562 
_cell_length_c                    25.980745592653467 
_cell_angle_alpha                 89.09899412398411 
_cell_angle_beta                  88.89491906095314 
_cell_angle_gamma                 92.88523596466969 
loop_ 
_atom_site_label 
_atom_site_type_symbol 
_atom_site_fract_x 
_atom_site_fract_y 
_atom_site_fract_z 
_atom_site_charge 
In1        In  0.63746696  0.12795294  0.26888610     1.36900
C2          C  0.64879059  0.13529708  0.37082038     0.78300
O3          O  0.57183448  0.17781748  0.28641139    -0.60200
O4          O  0.56208200  0.11931878  0.23327566    -0.51100
C5          C  0.69077693  0.15485100  0.18322722     0.70900
O6          O  0.71148077  0.15671596  0.22682333    -0.46000
C7          C  0.64861125  0.03107252  0.26743915     0.75600
O8          O  0.66505727  0.17049945  0.34083660    -0.57800
O9          O  0.60623615  0.05016983  0.26322809    -0.47900
O10         O  0.62801324  0.09910915  0.34837854    -0.54300
C11         C  0.54156759  0.15215969  0.25900980     0.85800
O12         O  0.64319861  0.14823021  0.18553384    -0.56100
O13         O  0.68637589  0.06154882  0.26954181    -0.59400
In14       In  0.65429149  0.11906781  0.52966554     1.36900
C15         C  0.65217120  0.13304728  0.42758010     0.78300
O16         O  0.69079255  0.04775256  0.51293295    -0.60200
O17         O  0.62174800  0.04535112  0.55683836    -0.51100
C18         C  0.73305680  0.13267711  0.59141773     0.70900
O19         O  0.73925719  0.13387093  0.54329449    -0.46000
C20         C  0.56060769  0.14454578  0.55833973     0.75600
O21         O  0.66956802  0.16716711  0.45631576    -0.57800
O22         O  0.58349612  0.10992031  0.57890324    -0.47900
O23         O  0.63641385  0.09414542  0.45132734    -0.54300
C24         C  0.65733145  0.02188934  0.53774995     0.85800
O25         O  0.68774638  0.13765209  0.60619654    -0.56100
O26         O  0.58817752  0.17144545  0.52746048    -0.59400
In27       In  0.65643704  0.88013569  0.28720123     1.36900
C28         C  0.65528194  0.86451989  0.38694822     0.78300
O29         O  0.69361768  0.95739608  0.28010859    -0.60200
O30         O  0.61365088  0.94865035  0.27390032    -0.51100
C31         C  0.73879473  0.86778750  0.23262793     0.70900
O32         O  0.74132781  0.88159102  0.27846066    -0.46000
C33         C  0.56639389  0.84561368  0.25845224     0.75600
O34         O  0.67336193  0.83293607  0.35732191    -0.57800
O35         O  0.59411169  0.87494577  0.23054592    -0.47900
O36         O  0.63879132  0.90213528  0.36521308    -0.54300
C37         C  0.65236164  0.97775566  0.27314815     0.85800
O38         O  0.69580650  0.84942411  0.21961976    -0.56100
O39         O  0.58912537  0.82486631  0.29467916    -0.59400
In40       In  0.65360344  0.87113518  0.54251317     1.36900
C41         C  0.65328781  0.86112799  0.44271683     0.78300
O42         O  0.58644761  0.81638547  0.53570948    -0.60200
O43         O  0.58450363  0.87492115  0.59002761    -0.51100
C44         C  0.72612882  0.85329363  0.60776940     0.70900
O45         O  0.73538222  0.86981192  0.56294151    -0.46000
C46         C  0.65836182  0.96860362  0.54248395     0.75600
O47         O  0.67492475  0.82960865  0.47033449    -0.57800
O48         O  0.62491732  0.94320858  0.56780694    -0.47900
O49         O  0.63032855  0.89343084  0.46665597    -0.54300
C50         C  0.56015351  0.84175133  0.56580357     0.85800
O51         O  0.68084551  0.83705271  0.61558596    -0.56100
O52         O  0.69129189  0.94434391  0.51973636    -0.59400
In53       In  0.39273648  0.12024505  0.29134511     1.36900
C54         C  0.39663264  0.13196874  0.39213320     0.78300
O55         O  0.36105025  0.04223360  0.30577783    -0.60200
O56         O  0.43037415  0.05368821  0.26308248    -0.51100
C57         C  0.31500977  0.13281560  0.22996301     0.70900
O58         O  0.30861432  0.11509437  0.27471461    -0.46000
C59         C  0.48578240  0.15199699  0.26288416     0.75600
O60         O  0.37741691  0.16478634  0.36424485    -0.57800
O61         O  0.45955709  0.12029442  0.23857791    -0.47900
O62         O  0.41240914  0.09563140  0.36826619    -0.54300
C63         C  0.39759510  0.02331214  0.28252262     0.85800
O64         O  0.35836051  0.15374777  0.22135084    -0.56100
O65         O  0.46129535  0.17500584  0.29654995    -0.59400
In66       In  0.40676536  0.11803998  0.54859262     1.36900
C67         C  0.40089407  0.13212080  0.44815096     0.78300
O68         O  0.47741351  0.16910837  0.53243614    -0.60200
O69         O  0.47935555  0.11549690  0.59269852    -0.51100
C70         C  0.32384093  0.13272714  0.60829717     0.70900
O71         O  0.32328892  0.10734181  0.56846538    -0.46000
C72         C  0.40774118  0.02065654  0.55238145     0.75600
O73         O  0.38571948  0.16487753  0.47842091    -0.57800
O74         O  0.43553665  0.04712983  0.58109465    -0.47900
O75         O  0.42021577  0.09591792  0.46963504    -0.54300
C76         C  0.50442003  0.14571112  0.56329447     0.85800
O77         O  0.36627921  0.15563271  0.61529849    -0.56100
O78         O  0.37824037  0.04375338  0.52447209    -0.59400
In79       In  0.41753189  0.87433160  0.28051161     1.36900
C80         C  0.51077400  0.84779208  0.25782207     0.78300
O81         O  0.44455409  0.95272369  0.26516638    -0.60200
O82         O  0.36920861  0.93902131  0.29489296    -0.51100
C83         C  0.34950615  0.85555739  0.20893685     0.70900
O84         O  0.39661538  0.85708308  0.19923643    -0.46000
C85         C  0.41585330  0.86080702  0.38223440     0.75600
O86         O  0.48033469  0.81975993  0.28467385    -0.57800
O87         O  0.43742430  0.89725985  0.35865504    -0.47900
O88         O  0.49119066  0.88482311  0.23783168    -0.54300
C89         C  0.40353621  0.97038281  0.28021808     0.85800
O90         O  0.33798891  0.85265171  0.25629247    -0.56100
O91         O  0.39524815  0.82834643  0.35344216    -0.59400
In92       In  0.41422502  0.87065575  0.54074397     1.36900
C93         C  0.41515049  0.85993932  0.43896372     0.78300
O94         O  0.37649398  0.94135383  0.52732361    -0.60200
O95         O  0.44713242  0.94440604  0.56580320    -0.51100
C96         C  0.34378039  0.85172371  0.61258731     0.70900
O97         O  0.33236030  0.86239712  0.56704284    -0.46000
C98         C  0.50490832  0.84274312  0.56437422     0.75600
O99         O  0.43805453  0.89457217  0.46225124    -0.57800
O100        O  0.48345730  0.87766351  0.58585465    -0.47900
O101        O  0.39168607  0.82788322  0.46806094    -0.54300
C102        C  0.41036037  0.96745937  0.54912216     0.85800
O103        O  0.38882248  0.83899256  0.61757624    -0.56100
O104        O  0.47716159  0.81659943  0.53493750    -0.59400
C105        C  0.10912710  0.96034890  0.91872164    -0.01800
C106        C  0.06130828  0.90661771  0.90879806    -0.01800
C107        C  0.05713020  0.08841390  0.92177316    -0.01800
C108        C  0.09931926  0.03130094  0.91953850    -0.01800
C109        C  0.98896560  0.90551925  0.91127472    -0.01800
C110        C  0.94454977  0.96187159  0.91345820    -0.01800
C111        C  0.98507228  0.08650380  0.91498935    -0.01800
C112        C  0.93711026  0.03280641  0.90404589    -0.01800
In113      In  0.15054159  0.37341146  0.30030410     1.36900
C114        C  0.16600305  0.37992038  0.40073617     0.78300
O115        O  0.20537363  0.44133488  0.30439491    -0.60200
O116        O  0.15164289  0.43658977  0.24440917    -0.51100
C117        C  0.15755350  0.29156251  0.24437522     0.70900
O118        O  0.13309085  0.29295758  0.28619337    -0.46000
C119        C  0.05103734  0.37951443  0.29418480     0.75600
O120        O  0.19827638  0.35934231  0.37229094    -0.57800
O121        O  0.08186800  0.40732255  0.26821983    -0.47900
O122        O  0.12835101  0.39545996  0.37755872    -0.54300
C123        C  0.18262793  0.46363931  0.26915354     0.85800
O124        O  0.18663273  0.32957015  0.23556208    -0.56100
O125        O  0.07088487  0.34852915  0.32315517    -0.59400
In126      In  0.15196307  0.39199376  0.55773207     1.36900
C127        C  0.16771869  0.38587855  0.45673965     0.78300
O128        O  0.07885642  0.35770168  0.52919031    -0.60200
O129        O  0.07495173  0.40656828  0.59201479    -0.51100
C130        C  0.17862583  0.32249841  0.62584144     0.70900
O131        O  0.15544417  0.31320920  0.58504025    -0.46000
C132        C  0.17126543  0.48816016  0.57162536     0.75600
O133        O  0.19874623  0.36713437  0.48733906    -0.57800
O134        O  0.13558146  0.46331514  0.59441059    -0.47900
O135        O  0.13355510  0.40950961  0.47813245    -0.54300
C136        C  0.05120310  0.38066184  0.55960730     0.85800
O137        O  0.19386438  0.36725425  0.62925077    -0.56100
O138        O  0.20265123  0.46259488  0.54746001    -0.59400
In139      In  0.89726004  0.38925702  0.28489729     1.36900
C140        C  0.88326700  0.38745488  0.38618643     0.78300
O141        O  0.96560017  0.34921251  0.30765588    -0.60200
O142        O  0.97667364  0.42076535  0.27284221    -0.51100
C143        C  0.89030866  0.31818661  0.21581928     0.70900
O144        O  0.86809571  0.31220677  0.25929553    -0.46000
C145        C  0.86605948  0.47713738  0.25798637     0.75600
O146        O  0.85138701  0.36487816  0.35754814    -0.57800
O147        O  0.90289266  0.45732616  0.23671589    -0.47900
O148        O  0.91871102  0.41193270  0.36264343    -0.54300
C149        C  0.99647174  0.38317751  0.29128968     0.85800
O150        O  0.90598234  0.36188028  0.20602772    -0.56100
O151        O  0.83850781  0.44860693  0.28709521    -0.59400
In152      In  0.89607414  0.37938533  0.54379327     1.36900
C153        C  0.88364671  0.38465862  0.44266775     0.78300
O154        O  0.83853049  0.43958498  0.54225782    -0.60200
O155        O  0.90514621  0.44901548  0.58693704    -0.51100
C156        C  0.87878269  0.29972688  0.60257559     0.70900
O157        O  0.89783503  0.29832389  0.55800860    -0.46000
C158        C  0.99604128  0.37953814  0.55510104     0.75600
O159        O  0.85035568  0.36196461  0.47141775    -0.57800
O160        O  0.96774870  0.40327234  0.58436165    -0.47900
O161        O  0.92070632  0.40444122  0.46598047    -0.54300
C162        C  0.86695447  0.46840084  0.56823529     0.85800
O163        O  0.85776721  0.33940911  0.61271334    -0.56100
O164        O  0.97340012  0.35632364  0.51994465    -0.59400
In165      In  0.15553442  0.61098859  0.27624171     1.36900
C166        C  0.16579704  0.61919450  0.37746657     0.78300
O167        O  0.08194922  0.63809220  0.30473402    -0.60200
O168        O  0.07867551  0.58802099  0.24290743    -0.51100
C169        C  0.17789519  0.68261105  0.20524481     0.70900
O170        O  0.15889251  0.69035257  0.24892106    -0.46000
C171        C  0.18175513  0.51791394  0.26437170     0.75600
O172        O  0.19907048  0.64008829  0.34707932    -0.57800
O173        O  0.14646772  0.53718848  0.24025671    -0.47900
O174        O  0.13171592  0.59338229  0.35573312    -0.54300
C175        C  0.05456224  0.61357296  0.27436977     0.85800
O176        O  0.19399835  0.63973433  0.20095197    -0.56100
O177        O  0.20913645  0.54809325  0.28991286    -0.59400
In178      In  0.14190905  0.63131508  0.53416225     1.36900
C179        C  0.16181000  0.62456630  0.43365907     0.78300
O180        O  0.19749188  0.56886333  0.53606675    -0.60200
O181        O  0.13225930  0.56420098  0.58541276    -0.51100
C182        C  0.15356452  0.71641595  0.58429190     0.70900
O183        O  0.12868549  0.71168637  0.54389804    -0.46000
C184        C  0.04151632  0.62660315  0.54287021     0.75600
O185        O  0.19312549  0.64794050  0.46207521    -0.57800
O186        O  0.06891368  0.60785129  0.57657315    -0.47900
O187        O  0.12306629  0.60566046  0.45701378    -0.54300
C188        C  0.16909697  0.54231692  0.56630629     0.85800
O189        O  0.17999350  0.67985084  0.59464073    -0.56100
O190        O  0.06537536  0.64650708  0.50484953    -0.59400
In191      In  0.89852375  0.61964145  0.28646976     1.36900
C192        C  0.87725976  0.61628155  0.38680267     0.78300
O193        O  0.84079342  0.55450288  0.29117792    -0.60200
O194        O  0.89929505  0.55648060  0.23343615    -0.51100
C195        C  0.88986765  0.70287257  0.23372540     0.70900
O196        O  0.91628292  0.69939225  0.27309874    -0.46000
C197        C  0.99916932  0.61470511  0.27758946     0.75600
O198        O  0.84924110  0.63945249  0.35655745    -0.57800
O199        O  0.96972095  0.59555696  0.24497954    -0.47900
O200        O  0.91298941  0.59474700  0.36512525    -0.54300
C201        C  0.86538939  0.53107204  0.25816919     0.85800
O202        O  0.86088397  0.66531680  0.22533890    -0.56100
O203        O  0.97724675  0.63533531  0.31433520    -0.59400
In204      In  0.88543779  0.61608996  0.54457077     1.36900
C205        C  0.87351064  0.61502461  0.44328043     0.78300
O206        O  0.96031387  0.64586055  0.51291361    -0.60200
O207        O  0.96059472  0.60111527  0.58070455    -0.51100
C208        C  0.86300310  0.68853184  0.60823686     0.70900
O209        O  0.88706416  0.69587663  0.56634320    -0.46000
C210        C  0.86361990  0.52228623  0.56883521     0.75600
O211        O  0.84262356  0.63780811  0.47137587    -0.57800
O212        O  0.89780764  0.54836466  0.59023883    -0.47900
O213        O  0.90579078  0.59179745  0.46751438    -0.54300
C214        C  0.98616925  0.62479722  0.54613502     0.85800
O215        O  0.84202126  0.64569112  0.61303633    -0.56100
O216        O  0.83392630  0.54607195  0.54102472    -0.59400
C217        C  0.92507892  0.19330237  0.82316438    -0.27500
C218        C  0.94111803  0.18029221  0.77438385     0.06100
C219        C  0.97624989  0.14350348  0.77166459     0.25700
C220        C  0.99011909  0.11792185  0.81627657    -0.12000
C221        C  0.96983102  0.12395630  0.86677642    -0.26000
C222        C  0.93806715  0.16708116  0.86748843     0.36500
C223        C  0.92252800  0.20689760  0.72787591     0.06100
F224        F  0.99716393  0.13063131  0.72595898    -0.19800
H225        H  0.01979887  0.09461132  0.81041069     0.15900
F226        F  0.91384141  0.18525285  0.90893576    -0.23500
H227        H  0.90122087  0.22448416  0.82764068     0.17700
C228        C  0.87193098  0.22257346  0.72553312     0.25700
C229        C  0.85648571  0.25126654  0.68376349    -0.12000
C230        C  0.89000142  0.26245088  0.64223684    -0.26000
C231        C  0.93923891  0.24425657  0.64292363     0.36600
C232        C  0.95559850  0.21818191  0.68573136    -0.27700
F233        F  0.83718349  0.21029423  0.76348640    -0.19800
H234        H  0.81848897  0.26500621  0.68398709     0.15900
F235        F  0.97335804  0.25533450  0.60400080    -0.23500
H236        H  0.99507689  0.20881137  0.68636257     0.17700
C237        C  0.96401295  0.19904785  0.01572945    -0.27500
C238        C  0.94298026  0.17659389  0.06026329     0.06100
C239        C  0.93228893  0.12575818  0.05793236     0.25700
C240        C  0.94315716  0.09959257  0.01273470    -0.12000
C241        C  0.96648820  0.11966767  0.96618411    -0.26000
C242        C  0.97850914  0.17207755  0.97287355     0.36500
C243        C  0.93300881  0.20747313  0.10708483     0.06100
F244        F  0.91314508  0.10002799  0.09974526    -0.19800
H245        H  0.93469375  0.06249266  0.01717358     0.15900
F246        F  0.00223392  0.20112978  0.93708625    -0.23500
H247        H  0.97032323  0.23880297  0.01336794     0.17700
C248        C  0.96372927  0.25072233  0.11550240     0.25700
C249        C  0.94848413  0.28577542  0.15042072    -0.12000
C250        C  0.90390364  0.27803190  0.18066478    -0.26000
C251        C  0.87709082  0.23200424  0.17847234     0.36600
C252        C  0.89134144  0.19715862  0.14170140    -0.27700
F253        F  0.00913201  0.25939406  0.09035738    -0.19800
H254        H  0.97240464  0.31924863  0.15421679     0.15900
F255        F  0.83643020  0.22141687  0.21043854    -0.23500
H256        H  0.86808298  0.16334742  0.13913523     0.17700
C257        C  0.97488705  0.80850181  0.79138767    -0.27500
C258        C  0.92274921  0.80360530  0.78316446     0.06100
C259        C  0.89155984  0.81816776  0.82304664     0.25700
C260        C  0.91266150  0.84621108  0.86298710    -0.12000
C261        C  0.96569391  0.86186986  0.86834850    -0.26000
C262        C  0.99174599  0.82579000  0.83939117     0.36500
C263        C  0.90161180  0.77796921  0.73743271     0.06100
F264        F  0.84059163  0.80786301  0.82293753    -0.19800
H265        H  0.88535326  0.85483394  0.88889383     0.15900
F266        F  0.01375939  0.78965774  0.86507984    -0.23500
H267        H  0.00005402  0.78752239  0.76764822     0.17700
C268        C  0.91804029  0.79268579  0.68753418     0.25700
C269        C  0.90076691  0.76634391  0.64480916    -0.12000
C270        C  0.86717909  0.72436830  0.65089116    -0.26000
C271        C  0.84784373  0.71187721  0.70055191     0.36600
C272        C  0.86522288  0.73824659  0.74331328    -0.27700
F273        F  0.95192834  0.83173878  0.68017065    -0.19800
H274        H  0.91637381  0.77701524  0.60714514     0.15900
F275        F  0.81462935  0.67233951  0.70830312    -0.23500
H276        H  0.85187965  0.72605956  0.78132610     0.17700
C277        C  0.96002673  0.79990849  0.15117869    -0.27500
C278        C  0.92444306  0.80858463  0.11313541     0.06100
C279        C  0.87405675  0.78833923  0.12001490     0.25700
C280        C  0.86146025  0.75604631  0.16135696    -0.12000
C281        C  0.89831329  0.74476199  0.19724862    -0.26000
C282        C  0.94720193  0.76861499  0.19299396     0.36500
C283        C  0.94203218  0.83147306  0.06317017     0.06100
F284        F  0.83763694  0.79764168  0.08537543    -0.19800
H285        H  0.82360972  0.73831663  0.16412817     0.15900
F286        F  0.98449784  0.75769590  0.22615405    -0.23500
H287        H  0.99906142  0.81414287  0.14659535     0.17700
C288        C  0.97564492  0.87315006  0.05917637     0.25700
C289        C  0.98991397  0.89325819  0.01040531    -0.12000
C290        C  0.97389158  0.87353558  0.96349843    -0.26000
C291        C  0.94435217  0.82650562  0.97002045     0.36600
C292        C  0.92801196  0.80809282  0.01816870    -0.27700
F293        F  0.99194294  0.89666936  0.10201939    -0.19800
H294        H  0.01042435  0.92815677  0.00764154     0.15900
F295        F  0.93804883  0.79148623  0.93379082    -0.23500
H296        H  0.90652582  0.77285073  0.02024594     0.17700
C297        C  0.16695295  0.17223942  0.83781392    -0.27500
C298        C  0.13882006  0.19376185  0.79962876     0.06100
C299        C  0.08750919  0.19681139  0.81009019     0.25700
C300        C  0.06541709  0.17264704  0.85352245    -0.12000
C301        C  0.08723174  0.13327003  0.88192292    -0.26000
C302        C  0.14201466  0.14699782  0.88003971     0.36500
C303        C  0.16190015  0.22169872  0.75472269     0.06100
F304        F  0.05952947  0.22774746  0.78176531    -0.19800
H305        H  0.03112026  0.18851267  0.86251019     0.15900
F306        F  0.16848960  0.15542565  0.92286075    -0.23500
H307        H  0.20777223  0.17963698  0.83833487     0.17700
C308        C  0.18723781  0.26816355  0.76055887     0.25700
C309        C  0.19695043  0.29961041  0.71755778    -0.12000
C310        C  0.18172774  0.28507491  0.66814720    -0.26000
C311        C  0.16041500  0.23670140  0.66211083     0.36600
C312        C  0.14978276  0.20595759  0.70509699    -0.27700
F313        F  0.19813907  0.28495233  0.80823822    -0.19800
H314        H  0.21305548  0.33662659  0.72349716     0.15900
F315        F  0.14612347  0.22028558  0.61518765    -0.23500
H316        H  0.12949632  0.17061743  0.69994104     0.17700
C317        C  0.08379855  0.19574864  0.16607418    -0.27500
C318        C  0.11512014  0.19237439  0.12198471     0.06100
C319        C  0.16411479  0.21681406  0.12221401     0.25700
C320        C  0.17923055  0.24675417  0.16337366    -0.12000
C321        C  0.14686187  0.25194065  0.20620642    -0.26000
C322        C  0.09963876  0.22441875  0.20795849     0.36500
C323        C  0.09577220  0.16774915  0.07411974     0.06100
F324        F  0.19722651  0.21281548  0.08191816    -0.19800
H325        H  0.21575154  0.26713086  0.16099267     0.15900
F326        F  0.06677209  0.22808486  0.24851144    -0.23500
H327        H  0.04579444  0.17839157  0.16728042     0.17700
C328        C  0.06424993  0.12439146  0.07343428     0.25700
C329        C  0.05067256  0.10240269  0.02612914    -0.12000
C330        C  0.06813168  0.12032020  0.97646359    -0.26000
C331        C  0.09063059  0.17068777  0.98092416     0.36600
C332        C  0.10613353  0.19117134  0.02719537    -0.27700
F333        F  0.04810350  0.10148372  0.11803108    -0.19800
H334        H  0.02695050  0.06919350  0.02887559     0.15900
F335        F  0.09450360  0.20543965  0.94284462    -0.23500
H336        H  0.12401833  0.22814094  0.02616814     0.17700
C337        C  0.09046267  0.81768376  0.65853447    -0.27500
C338        C  0.12148551  0.82152809  0.70188596     0.06100
C339        C  0.16747375  0.79599253  0.70112106     0.25700
C340        C  0.17952028  0.76493859  0.66082207    -0.12000
C341        C  0.14681116  0.75836041  0.61960383    -0.26000
C342        C  0.10292536  0.78656459  0.61771752     0.36500
C343        C  0.10338439  0.84440257  0.75110999     0.06100
F344        F  0.20059200  0.79946921  0.74053317    -0.19800
H345        H  0.21357037  0.74413960  0.66316975     0.15900
F346        F  0.06961709  0.78089537  0.57869002    -0.23500
H347        H  0.05473271  0.83580924  0.65771126     0.17700
C348        C  0.07400868  0.88643629  0.75552380     0.27300
C349        C  0.05915452  0.90380753  0.80498561    -0.12000
C350        C  0.07522349  0.88270421  0.85248629    -0.26000
C351        C  0.10036890  0.83640612  0.84413202     0.36600
C352        C  0.11349416  0.81951519  0.79614865    -0.27700
F353        F  0.06238899  0.91269867  0.71281487    -0.19800
H354        H  0.04104177  0.93821385  0.80600848     0.15900
F355        F  0.10321412  0.79876265  0.87882435    -0.23500
H356        H  0.12877795  0.78311832  0.79452721     0.17700
C357        C  0.18024575  0.73873243  0.06943457    -0.27500
C358        C  0.14802460  0.77816518  0.07587532     0.06100
C359        C  0.13061072  0.78862765  0.12590496     0.25700
C360        C  0.14458641  0.75993847  0.16812794    -0.12000
C361        C  0.17459445  0.71877997  0.16159334    -0.26000
C362        C  0.19278087  0.70879403  0.11159594     0.36500
C363        C  0.12775308  0.80451324  0.03036428     0.06100
F364        F  0.09809718  0.82525411  0.13384758    -0.19800
H365        H  0.12898055  0.76815866  0.20574006     0.15900
F366        F  0.21994210  0.66838906  0.10279007    -0.23500
H367        H  0.19308122  0.72908598  0.03120750     0.17700
C368        C  0.15862011  0.82402649  0.98980336     0.25700
C369        C  0.13621779  0.85038800  0.94935608    -0.12000
C370        C  0.08342622  0.86162417  0.94749042    -0.26000
C371        C  0.05691368  0.82264611  0.97672528     0.36600
C372        C  0.07549670  0.80361443  0.02283940    -0.27700
F373        F  0.20974099  0.81904571  0.98944204    -0.19800
H374        H  0.15868083  0.85594439  0.91611203     0.15900
F375        F  0.02937434  0.78773032  0.95229194    -0.23500
H376        H  0.05075497  0.77916627  0.04673449     0.17700
C377        C  0.23247653  0.89444295  0.69171414    -0.27500
C378        C  0.25479411  0.90359022  0.73995086     0.06100
C379        C  0.30654978  0.89288409  0.74525870     0.25700
C380        C  0.33341950  0.87150801  0.70504612    -0.12000
C381        C  0.31076521  0.86250451  0.65737092    -0.26000
C382        C  0.26005276  0.87474224  0.65092741     0.36500
C383        C  0.22361513  0.92168848  0.78462975     0.06100
F384        F  0.33268497  0.90571032  0.78794503    -0.19800
H385        H  0.37334713  0.86503390  0.71027015     0.15900
F386        F  0.23709278  0.86817727  0.60499043    -0.23500
H387        H  0.19292079  0.90078154  0.68524475     0.17700
C388        C  0.18115749  0.94926185  0.77795068     0.25700
C389        C  0.14822781  0.95791078  0.81938912    -0.12000
C390        C  0.15507313  0.94749323  0.87282237    -0.26000
C391        C  0.20400193  0.92302977  0.87744390     0.36600
C392        C  0.23389016  0.90871288  0.83518810    -0.27700
F393        F  0.16953716  0.96772427  0.73099654    -0.19800
H394        H  0.11517854  0.97243652  0.80650667     0.15900
F395        F  0.22453977  0.90509740  0.92091358    -0.23500
H396        H  0.26493218  0.88518542  0.84308578     0.17700
C397        C  0.16208432  0.91610677  0.06009070    -0.27500
C398        C  0.21342003  0.92922154  0.05678371     0.06100
C399        C  0.22997794  0.95865110  0.01488567     0.25700
C400        C  0.19608666  0.96967361  0.97553169    -0.12000
C401        C  0.14441444  0.94932578  0.97140735    -0.26000
C402        C  0.12901620  0.92614222  0.02028719     0.36500
C403        C  0.24840852  0.90965095  0.09586694     0.06100
F404        F  0.27913869  0.97650457  0.01098830    -0.19800
H405        H  0.21387213  0.99082549  0.94547079     0.15900
F406        F  0.08225501  0.91088072  0.03294966    -0.23500
H407        H  0.14697725  0.89523904  0.09315182     0.17700
C408        C  0.23438891  0.90731125  0.14855793     0.25700
C409        C  0.26542981  0.88515394  0.18434302    -0.12000
C410        C  0.31185327  0.86593096  0.16900835    -0.26000
C411        C  0.32573377  0.86759845  0.11634888     0.36600
C412        C  0.29407037  0.88887185  0.08023176    -0.27700
F413        F  0.19162134  0.92820965  0.16604226    -0.19800
H414        H  0.25445416  0.88580865  0.22472106     0.15900
F415        F  0.37046967  0.84978505  0.09987516    -0.23500
H416        H  0.30517832  0.88882966  0.03987829     0.17700
C417        C  0.24979565  0.13768843  0.73396659    -0.27500
C418        C  0.20865132  0.10322445  0.72616007     0.06100
C419        C  0.20028585  0.08693415  0.67573939     0.25700
C420        C  0.23577050  0.10039286  0.63601780    -0.12000
C421        C  0.27997783  0.13048390  0.64572377    -0.26000
C422        C  0.28507042  0.15095343  0.69464746     0.36500
C423        C  0.18029742  0.08072645  0.77221514     0.06100
F424        F  0.16039876  0.05506579  0.66553356    -0.19800
H425        H  0.23036248  0.08449016  0.59841072     0.15900
F426        F  0.32647575  0.18043242  0.70598567    -0.23500
H427        H  0.25681821  0.15221473  0.77179597     0.17700
C428        C  0.20855047  0.06670677  0.81452180     0.25700
C429        C  0.18459450  0.04978921  0.85998641    -0.12000
C430        C  0.13056723  0.04611975  0.86759638    -0.26000
C431        C  0.10330751  0.05290802  0.82193789     0.36600
C432        C  0.12696191  0.07139722  0.77539817    -0.27700
F433        F  0.26028500  0.06746677  0.81169884    -0.19800
H434        H  0.21066324  0.03606333  0.88611207     0.15900
F435        F  0.05727458  0.02884741  0.82071352    -0.23500
H436        H  0.10381041  0.07695039  0.74203426     0.17700
C437        C  0.13920584  0.03943901  0.06636433    -0.27500
C438        C  0.18294198  0.07128616  0.06481716     0.06100
C439        C  0.19933250  0.09070228  0.01704943     0.25700
C440        C  0.17662432  0.07493605  0.97216770    -0.12000
C441        C  0.13046111  0.04570845  0.97069573    -0.26000
C442        C  0.11249049  0.02862403  0.02067328     0.36500
C443        C  0.21451738  0.08316744  0.11060889     0.06100
F444        F  0.23883698  0.12501787  0.01297443    -0.19800
H445        H  0.19889620  0.08669587  0.93992538     0.15900
F446        F  0.06824831  0.00082772  0.02495923    -0.23500
H447        H  0.12509175  0.02342444  0.10263825     0.17700
C448        C  0.19382633  0.09795956  0.15805766     0.25700
C449        C  0.22614993  0.11625486  0.19679639    -0.12000
C450        C  0.27925427  0.12064420  0.18832619    -0.26000
C451        C  0.29964118  0.10353448  0.14198292     0.36600
C452        C  0.26781337  0.08397305  0.10454580    -0.27700
F453        F  0.14278290  0.09534860  0.16687821    -0.19800
H454        H  0.20980539  0.12699861  0.23327053     0.15900
F455        F  0.35081782  0.10308504  0.13383805    -0.23500
H456        H  0.28515946  0.07009536  0.06984860     0.17700
C457        C  0.83264905  0.91004057  0.68500393    -0.27500
C458        C  0.81810762  0.89496343  0.73547512     0.06100
C459        C  0.77553659  0.86118330  0.74214513     0.25700
C460        C  0.74862708  0.84389558  0.69966160    -0.12000
C461        C  0.76271073  0.86011839  0.64969946    -0.26000
C462        C  0.80588983  0.89252579  0.64265465     0.36500
C463        C  0.84730322  0.91484949  0.78020471     0.06100
F464        F  0.75833821  0.84569478  0.78951688    -0.19800
H465        H  0.71487222  0.81981768  0.70621097     0.15900
F466        F  0.81991147  0.91082213  0.59524531    -0.23500
H467        H  0.86313514  0.93777659  0.67797637     0.17700
C468        C  0.90015703  0.92416315  0.77683880     0.25700
C469        C  0.92703609  0.93931427  0.81987327    -0.12000
C470        C  0.90542402  0.94496110  0.86956181    -0.26000
C471        C  0.85049919  0.93866483  0.87090365     0.36600
C472        C  0.82301788  0.92391927  0.82733640    -0.27700
F473        F  0.92737060  0.91532789  0.73338667    -0.19800
H474        H  0.96691594  0.94600457  0.81494844     0.15900
F475        F  0.82071920  0.94961241  0.91145447    -0.23500
H476        H  0.78187254  0.92108543  0.83059019     0.17700
C477        C  0.86308439  0.91272734  0.16530024    -0.27500
C478        C  0.84336962  0.93220732  0.11968320     0.06100
C479        C  0.78992591  0.92999694  0.11367544     0.25700
C480        C  0.75799842  0.90611982  0.14970047    -0.12000
C481        C  0.77721754  0.88496484  0.19396496    -0.26000
C482        C  0.82989473  0.89008308  0.20303857     0.36500
C483        C  0.87511509  0.93885088  0.07198758     0.06100
F484        F  0.76840747  0.94477920  0.06932119    -0.19800
H485        H  0.71738503  0.90461432  0.14281711     0.15900
F486        F  0.84914096  0.87164607  0.24702219    -0.23500
H487        H  0.90387877  0.91241426  0.17025885     0.17700
C488        C  0.91668080  0.97274518  0.06264208     0.25700
C489        C  0.93855053  0.97795700  0.01198980    -0.12000
C490        C  0.91844521  0.95219618  0.96901297    -0.26000
C491        C  0.87937998  0.91451041  0.98360491     0.36600
C492        C  0.86001502  0.90853156  0.03267127    -0.27700
F493        F  0.93650294  0.99978408  0.10161231    -0.19800
H494        H  0.97355675  0.00007649  0.00592853     0.15900
F495        F  0.85545059  0.88212268  0.95368397    -0.23500
H496        H  0.83034634  0.87972103  0.03961641     0.17700
C497        C  0.85526643  0.10981307  0.66480560    -0.27500
C498        C  0.83806277  0.06939639  0.69658768     0.06100
C499        C  0.78894217  0.04801856  0.68836072     0.25700
C500        C  0.75575328  0.07052600  0.65530432    -0.12000
C501        C  0.77113484  0.11317119  0.62676348    -0.26000
C502        C  0.82222368  0.13105828  0.62922096     0.36500
C503        C  0.86480303  0.05592956  0.74490616     0.06100
F504        F  0.77192783  0.00639663  0.71448120    -0.19800
H505        H  0.71757459  0.05404069  0.65156231     0.15900
F506        F  0.83936394  0.16981534  0.59890008    -0.23500
H507        H  0.89332996  0.12606246  0.66901958     0.17700
C508        C  0.91617187  0.04518279  0.74831001     0.25700
C509        C  0.93779899  0.03581351  0.79713942    -0.12000
C510        C  0.91097902  0.03922643  0.84549254    -0.26000
C511        C  0.85632737  0.03987298  0.83668022     0.36600
C512        C  0.83578482  0.05207223  0.78981679    -0.27700
F513        F  0.94545031  0.04304158  0.70489846    -0.19800
H514        H  0.97640323  0.02546892  0.79661612     0.15900
F515        F  0.81926780  0.03139357  0.87319388    -0.23500
H516        H  0.79532037  0.05798260  0.78909936     0.17700
C517        C  0.83390824  0.12688232  0.96502428    -0.27500
C518        C  0.81591956  0.10297209  0.00976699     0.06100
C519        C  0.82656601  0.05365059  0.01478564     0.25700
C520        C  0.85434198  0.02990218  0.97686073    -0.12000
C521        C  0.88582916  0.05406370  0.93748247    -0.26000
C522        C  0.86358961  0.10200083  0.92833084     0.36500
C523        C  0.77866995  0.12453045  0.04659168     0.06100
F524        F  0.80831309  0.02730585  0.05624298    -0.19800
H525        H  0.84442368  0.99247784  0.97890218     0.15900
F526        F  0.85599794  0.12000640  0.88055135    -0.23500
H527        H  0.82007456  0.16280691  0.95532406     0.17700
C528        C  0.78893246  0.16936864  0.07209834     0.25700
C529        C  0.76014752  0.18100904  0.11650854    -0.12000
C530        C  0.71879244  0.14953943  0.13352025    -0.26000
C531        C  0.70462217  0.10858657  0.10341225     0.36600
C532        C  0.73410666  0.09638870  0.06077579    -0.27700
F533        F  0.82764967  0.20078495  0.05519170    -0.19800
H534        H  0.77017809  0.21413424  0.13752797     0.15900
F535        F  0.66416063  0.07782990  0.11753897    -0.23500
H536        H  0.72337655  0.06309808  0.04019475     0.17700
loop_ 
_geom_bond_atom_site_label_1 
_geom_bond_atom_site_label_2 
_geom_bond_distance 
_geom_bond_site_symmetry_2 
_ccdc_geom_bond_type 
In1           O3   2.287       .  S
In1           O4   2.206       .  S
In1          O12   2.226       .  S
In1           O6   2.307       .  S
In1           O8   2.320       .  S
In1           O9   2.230       .  S
In1          O10   2.202       .  S
In1          O13   2.263       .  S
C2            O8   1.273       .  A
C2           O10   1.255       .  A
C2           C15   1.480       .  S
O3           C11   1.267       .  A
O4           C11   1.258       .  A
C5           O12   1.254       .  A
C5            O6   1.267       .  A
C5          C530   1.487       .  S
C7            O9   1.257       .  A
C7           O13   1.261       .  A
C7           C37   1.458   1_545  S
C11          C59   1.467       .  S
In14         O16   2.244       .  S
In14         O17   2.231       .  S
In14         O25   2.244       .  S
In14         O19   2.284       .  S
In14         O21   2.309       .  S
In14         O22   2.239       .  S
In14         O23   2.206       .  S
In14         O26   2.299       .  S
C15          O21   1.270       .  A
C15          O23   1.260       .  A
O16          C24   1.258       .  A
O17          C24   1.255       .  A
C18          O25   1.259       .  A
C18          O19   1.257       .  A
C18         C501   1.482       .  S
C20          O22   1.257       .  A
C20          O26   1.267       .  A
C20          C76   1.482       .  S
C24          C46   1.448   1_545  S
In27         O29   2.268       .  S
In27         O30   2.243       .  S
In27         O38   2.215       .  S
In27         O32   2.237       .  S
In27         O34   2.273       .  S
In27         O35   2.224       .  S
In27         O36   2.170       .  S
In27         O39   2.263       .  S
C28          O34   1.264       .  A
C28          O36   1.257       .  A
C28          C41   1.450       .  S
O29          C37   1.256       .  A
O30          C37   1.255       .  A
C31          O38   1.266       .  A
C31          O32   1.256       .  A
C31         C481   1.464       .  S
C33          O35   1.261       .  A
C33          O39   1.264       .  A
C33          C80   1.466       .  S
In40         O42   2.259       .  S
In40         O43   2.184       .  S
In40         O51   2.243       .  S
In40         O45   2.226       .  S
In40         O47   2.277       .  S
In40         O48   2.232       .  S
In40         O49   2.161       .  S
In40         O52   2.237       .  S
C41          O47   1.270       .  A
C41          O49   1.254       .  A
O42          C50   1.267       .  A
O43          C50   1.260       .  A
C44          O51   1.260       .  A
C44          O45   1.256       .  A
C44         C461   1.475       .  S
C46          O48   1.257       .  A
C46          O52   1.257       .  A
C50          C98   1.455       .  S
In53         O55   2.255       .  S
In53         O56   2.227       .  S
In53         O64   2.245       .  S
In53         O58   2.259       .  S
In53         O60   2.301       .  S
In53         O61   2.207       .  S
In53         O62   2.177       .  S
In53         O65   2.283       .  S
C54          O60   1.268       .  A
C54          O62   1.255       .  A
C54          C67   1.462       .  S
O55          C63   1.260       .  A
O56          C63   1.254       .  A
C57          O64   1.261       .  A
C57          O58   1.256       .  A
C57         C450   1.477       .  S
C59          O61   1.259       .  A
C59          O65   1.266       .  A
C63          C89   1.452   1_545  S
In66         O68   2.287       .  S
In66         O69   2.248       .  S
In66         O77   2.295       .  S
In66         O71   2.248       .  S
In66         O73   2.297       .  S
In66         O74   2.257       .  S
In66         O75   2.173       .  S
In66         O78   2.215       .  S
C67          O73   1.269       .  A
C67          O75   1.255       .  A
O68          C76   1.265       .  A
O69          C76   1.262       .  A
C70          O77   1.266       .  A
C70          O71   1.251       .  A
C70         C421   1.492       .  S
C72          O74   1.261       .  A
C72          O78   1.255       .  A
C72         C102   1.450   1_545  S
In79         O81   2.232       .  S
In79         O82   2.247       .  S
In79         O90   2.247       .  S
In79         O84   2.243       .  S
In79         O86   2.273       .  S
In79         O87   2.197       .  S
In79         O88   2.216       .  S
In79         O91   2.301       .  S
C80          O86   1.266       .  A
C80          O88   1.260       .  A
O81          C89   1.259       .  A
O82          C89   1.257       .  A
C83          O90   1.262       .  A
C83          O84   1.257       .  A
C83         C410   1.481       .  S
C85          O87   1.258       .  A
C85          O91   1.270       .  A
C85          C93   1.473       .  S
In92         O94   2.226       .  S
In92         O95   2.247       .  S
In92        O103   2.237       .  S
In92         O97   2.244       .  S
In92         O99   2.200       .  S
In92        O100   2.185       .  S
In92        O101   2.303       .  S
In92        O104   2.268       .  S
C93          O99   1.258       .  A
C93         O101   1.270       .  A
O94         C102   1.258       .  A
O95         C102   1.257       .  A
C96         O103   1.258       .  A
C96          O97   1.259       .  A
C96         C381   1.480       .  S
C98         O100   1.258       .  A
C98         O104   1.267       .  A
C105        C106   1.898       .  S
C105        C108   1.952   1_565  S
C105        C390   1.732       .  S
C105        C401   1.699       .  S
C106        C109   1.900   1_455  S
C106        C350   1.651       .  S
C106        C370   1.700       .  S
C107        C108   1.949       .  S
C107        C111   1.904   1_455  S
C107        C301   1.734       .  S
C107        C330   1.697       .  S
C108        C430   1.601       .  S
C108        C441   1.617       .  S
C109        C110   1.968       .  S
C109        C261   1.735       .  S
C109        C290   1.630       .  S
C110        C112   1.953   1_565  S
C110        C470   1.607       .  S
C110        C490   1.598       .  S
C111        C112   1.904       .  S
C111        C221   1.667       .  S
C111        C241   1.694       .  S
C112        C510   1.691       .  S
C112        C521   1.718       .  S
In113       O115   2.284       .  S
In113       O116   2.225       .  S
In113       O124   2.292       .  S
In113       O118   2.241       .  S
In113       O120   2.309       .  S
In113       O121   2.235       .  S
In113       O122   2.180       .  S
In113       O125   2.233       .  S
C114        O120   1.270       .  A
C114        O122   1.255       .  A
C114        C127   1.468       .  S
O115        C123   1.265       .  A
O116        C123   1.260       .  A
C117        O124   1.266       .  A
C117        O118   1.254       .  A
C117        C321   1.493       .  S
C119        O121   1.257       .  A
C119        O125   1.258       .  A
C119        C149   1.446   1_455  S
C123        C171   1.475       .  S
In126       O128   2.236       .  S
In126       O129   2.251       .  S
In126       O137   2.287       .  S
In126       O131   2.245       .  S
In126       O133   2.312       .  S
In126       O134   2.225       .  S
In126       O135   2.183       .  S
In126       O138   2.284       .  S
C127        O133   1.268       .  A
C127        O135   1.255       .  A
O128        C136   1.256       .  A
O129        C136   1.259       .  A
C130        O137   1.262       .  A
C130        O131   1.255       .  A
C130        C310   1.490       .  S
C132        O134   1.259       .  A
C132        O138   1.267       .  A
C132        C188   1.475       .  S
C136        C158   1.456   1_455  S
In139       O141   2.229       .  S
In139       O142   2.229       .  S
In139       O150   2.202       .  S
In139       O144   2.299       .  S
In139       O146   2.290       .  S
In139       O147   2.209       .  S
In139       O148   2.196       .  S
In139       O151   2.285       .  S
C140        O146   1.271       .  A
C140        O148   1.259       .  A
C140        C153   1.468       .  S
O141        C149   1.259       .  A
O142        C149   1.259       .  A
C143        O150   1.254       .  A
C143        O144   1.266       .  A
C143        C250   1.484       .  S
C145        O147   1.254       .  A
C145        O151   1.264       .  A
C145        C201   1.462       .  S
In152       O154   2.279       .  S
In152       O155   2.214       .  S
In152       O163   2.270       .  S
In152       O157   2.223       .  S
In152       O159   2.294       .  S
In152       O160   2.248       .  S
In152       O161   2.197       .  S
In152       O164   2.235       .  S
C153        O159   1.268       .  A
C153        O161   1.258       .  A
O154        C162   1.265       .  A
O155        C162   1.258       .  A
C156        O163   1.262       .  A
C156        O157   1.255       .  A
C156        C230   1.475       .  S
C158        O160   1.259       .  A
C158        O164   1.259       .  A
C162        C210   1.467       .  S
In165       O167   2.221       .  S
In165       O168   2.275       .  S
In165       O176   2.291       .  S
In165       O170   2.250       .  S
In165       O172   2.314       .  S
In165       O173   2.224       .  S
In165       O174   2.185       .  S
In165       O177   2.292       .  S
C166        O172   1.272       .  A
C166        O174   1.256       .  A
C166        C179   1.472       .  S
O167        C175   1.254       .  A
O168        C175   1.261       .  A
C169        O176   1.262       .  A
C169        O170   1.256       .  A
C169        C361   1.494       .  S
C171        O173   1.259       .  A
C171        O177   1.266       .  A
C175        C197   1.459   1_455  S
In178       O180   2.290       .  S
In178       O181   2.237       .  S
In178       O189   2.279       .  S
In178       O183   2.239       .  S
In178       O185   2.310       .  S
In178       O186   2.252       .  S
In178       O187   2.189       .  S
In178       O190   2.220       .  S
C179        O185   1.268       .  A
C179        O187   1.257       .  A
O180        C188   1.264       .  A
O181        C188   1.258       .  A
C182        O189   1.266       .  A
C182        O183   1.252       .  A
C182        C341   1.487       .  S
C184        O186   1.261       .  A
C184        O190   1.259       .  A
C184        C214   1.454   1_455  S
In191       O193   2.268       .  S
In191       O194   2.214       .  S
In191       O202   2.270       .  S
In191       O196   2.207       .  S
In191       O198   2.300       .  S
In191       O199   2.271       .  S
In191       O200   2.188       .  S
In191       O203   2.228       .  S
C192        O198   1.268       .  A
C192        O200   1.259       .  A
C192        C205   1.468       .  S
O193        C201   1.262       .  A
O194        C201   1.258       .  A
C195        O202   1.264       .  A
C195        O196   1.252       .  A
C195        C281   1.472       .  S
C197        O199   1.259       .  A
C197        O203   1.258       .  A
In204       O206   2.226       .  S
In204       O207   2.256       .  S
In204       O215   2.273       .  S
In204       O209   2.241       .  S
In204       O211   2.311       .  S
In204       O212   2.210       .  S
In204       O213   2.182       .  S
In204       O216   2.278       .  S
C205        O211   1.271       .  A
C205        O213   1.255       .  A
O206        C214   1.256       .  A
O207        C214   1.259       .  A
C208        O215   1.263       .  A
C208        O209   1.256       .  A
C208        C270   1.487       .  S
C210        O212   1.258       .  A
C210        O216   1.266       .  A
C217        C218   1.384       .  A
C217        C222   1.400       .  A
C217        H227   1.083       .  S
C218        C223   1.500       .  S
C218        C219   1.394       .  A
C219        C220   1.405       .  A
C219        F224   1.357       .  S
C220        C221   1.422       .  A
C220        H225   1.038   1_655  S
C221        C222   1.470       .  A
C222        F226   1.352       .  S
C223        C228   1.418       .  A
C223        C232   1.405       .  A
C228        C229   1.403       .  A
C228        F233   1.357       .  S
C229        C230   1.399       .  A
C229        H234   1.083       .  S
C230        C231   1.408       .  A
C231        C232   1.395       .  A
C231        F235   1.358       .  S
C232        H236   1.081       .  S
C237        C238   1.390       .  A
C237        C242   1.398   1_554  A
C237        H247   1.082       .  S
C238        C243   1.513       .  S
C238        C239   1.394       .  A
C239        C240   1.413       .  A
C239        F244   1.356       .  S
C240        C241   1.432   1_554  A
C240        H245   1.022       .  S
C241        C242   1.452       .  A
C242        F246   1.333   1_655  S
C243        C248   1.411       .  A
C243        C252   1.418       .  A
C248        C249   1.391       .  A
C248        F253   1.357   1_655  S
C249        C250   1.403       .  A
C249        H254   1.084       .  S
C250        C251   1.403       .  A
C251        C252   1.412       .  A
C251        F255   1.357       .  S
C252        H256   1.079       .  S
C257        C258   1.391       .  A
C257        C262   1.411       .  A
C257        H267   1.083   1_655  S
C258        C263   1.488       .  S
C258        C259   1.383       .  A
C259        C260   1.402       .  A
C259        F264   1.355       .  S
C260        C261   1.446       .  A
C260        H265   1.013       .  S
C261        C262   1.435       .  A
C262        F266   1.338   1_655  S
C263        C268   1.404       .  A
C263        C272   1.407       .  A
C268        C269   1.400       .  A
C268        F273   1.357       .  S
C269        C270   1.409       .  A
C269        H274   1.083       .  S
C270        C271   1.407       .  A
C271        C272   1.402       .  A
C271        F275   1.357       .  S
C272        H276   1.083       .  S
C277        C278   1.399       .  A
C277        C282   1.393       .  A
C277        H287   1.081       .  S
C278        C283   1.485       .  S
C278        C279   1.415       .  A
C279        C280   1.398       .  A
C279        F284   1.356       .  S
C280        C281   1.399       .  A
C280        H285   1.083       .  S
C281        C282   1.410       .  A
C282        F286   1.358       .  S
C283        C288   1.399       .  A
C283        C292   1.386       .  A
C288        C289   1.408       .  A
C288        F293   1.357       .  S
C289        C290   1.402   1_554  A
C289        H294   1.065   1_655  S
C290        C291   1.464       .  A
C291        C292   1.391   1_556  A
C291        F295   1.353       .  S
C292        H296   1.084       .  S
C297        C298   1.387       .  A
C297        C302   1.416       .  A
C297        H307   1.082       .  S
C298        C303   1.483       .  S
C298        C299   1.377       .  A
C299        C300   1.397       .  A
C299        F304   1.359       .  S
C300        C301   1.437       .  A
C300        H305   1.042       .  S
C301        C302   1.469       .  A
C302        F306   1.340       .  S
C303        C308   1.406       .  A
C303        C312   1.402       .  A
C308        C309   1.406       .  A
C308        F313   1.357       .  S
C309        C310   1.408       .  A
C309        H314   1.083       .  S
C310        C311   1.411       .  A
C311        C312   1.398       .  A
C311        F315   1.358       .  S
C312        H316   1.083       .  S
C317        C318   1.405       .  A
C317        C322   1.404       .  A
C317        H327   1.082       .  S
C318        C323   1.505       .  S
C318        C319   1.418       .  A
C319        C320   1.404       .  A
C319        F324   1.358       .  S
C320        C321   1.401       .  A
C320        H325   1.083       .  S
C321        C322   1.415       .  A
C322        F326   1.358       .  S
C323        C328   1.403       .  A
C323        C332   1.381       .  A
C328        C329   1.418       .  A
C328        F333   1.356       .  S
C329        C330   1.430   1_554  A
C329        H334   1.069       .  S
C330        C331   1.466       .  A
C331        C332   1.391   1_556  A
C331        F335   1.354       .  S
C332        H336   1.084       .  S
C337        C338   1.405       .  A
C337        C342   1.409       .  A
C337        H347   1.082       .  S
C338        C343   1.509       .  S
C338        C339   1.422       .  A
C339        C340   1.395       .  A
C339        F344   1.358       .  S
C340        C341   1.394       .  A
C340        H345   1.083       .  S
C341        C342   1.416       .  A
C342        F346   1.358       .  S
C343        C348   1.412       .  A
C343        C352   1.378       .  A
C348        C349   1.429       .  A
C348        F353   1.357       .  S
C349        C350   1.432       .  A
C349        H354   1.068       .  S
C350        C351   1.464       .  A
C351        C352   1.378       .  A
C351        F355   1.356       .  S
C352        H356   1.084       .  S
C357        C358   1.406       .  A
C357        C362   1.407       .  A
C357        H367   1.083       .  S
C358        C363   1.492       .  S
C358        C359   1.407       .  A
C359        C360   1.400       .  A
C359        F364   1.357       .  S
C360        C361   1.408       .  A
C360        H365   1.083       .  S
C361        C362   1.410       .  A
C362        F366   1.356       .  S
C363        C368   1.398   1_554  A
C363        C372   1.390       .  A
C368        C369   1.415       .  A
C368        F373   1.357       .  S
C369        C370   1.437       .  A
C369        H374   1.041       .  S
C370        C371   1.434       .  A
C371        C372   1.403   1_556  A
C371        F375   1.337       .  S
C372        H376   1.084       .  S
C377        C378   1.414       .  A
C377        C382   1.400       .  A
C377        H387   1.078       .  S
C378        C383   1.510       .  S
C378        C379   1.414       .  A
C379        C380   1.399       .  A
C379        F384   1.356       .  S
C380        C381   1.404       .  A
C380        H385   1.083       .  S
C381        C382   1.402       .  A
C382        F386   1.358       .  S
C383        C388   1.386       .  A
C383        C392   1.389       .  A
C388        C389   1.398       .  A
C388        F393   1.357       .  S
C389        C390   1.429       .  A
C389        H394   1.031       .  S
C390        C391   1.482       .  A
C391        C392   1.408       .  A
C391        F395   1.355       .  S
C392        H396   1.081       .  S
C397        C398   1.379       .  A
C397        C402   1.396       .  A
C397        H407   1.079       .  S
C398        C403   1.492       .  S
C398        C399   1.389       .  A
C399        C400   1.407   1_554  A
C399        F404   1.358       .  S
C400        C401   1.446       .  A
C400        H405   1.050       .  S
C401        C402   1.449   1_556  A
C402        F406   1.311       .  S
C403        C408   1.410       .  A
C403        C412   1.407       .  A
C408        C409   1.397       .  A
C408        F413   1.357       .  S
C409        C410   1.404       .  A
C409        H414   1.083       .  S
C410        C411   1.409       .  A
C411        C412   1.402       .  A
C411        F415   1.357       .  S
C412        H416   1.083       .  S
C417        C418   1.412       .  A
C417        C422   1.397       .  A
C417        H427   1.080       .  S
C418        C423   1.502       .  S
C418        C419   1.407       .  A
C419        C420   1.409       .  A
C419        F424   1.357       .  S
C420        C421   1.414       .  A
C420        H425   1.083       .  S
C421        C422   1.401       .  A
C422        F426   1.357       .  S
C423        C428   1.397       .  A
C423        C432   1.412       .  A
C428        C429   1.388       .  A
C428        F433   1.359       .  S
C429        C430   1.428       .  A
C429        H434   1.051       .  S
C430        C431   1.412       .  A
C431        C432   1.421       .  A
C431        F435   1.346       .  S
C432        H436   1.082       .  S
C437        C438   1.402       .  A
C437        C442   1.418       .  A
C437        H447   1.082       .  S
C438        C443   1.494       .  S
C438        C439   1.392       .  A
C439        C440   1.384   1_554  A
C439        F444   1.360       .  S
C440        C441   1.416       .  A
C440        H445   1.049       .  S
C441        C442   1.435   1_556  A
C442        F446   1.355       .  S
C443        C448   1.410       .  A
C443        C452   1.406       .  A
C448        C449   1.409       .  A
C448        F453   1.355       .  S
C449        C450   1.408       .  A
C449        H454   1.083       .  S
C450        C451   1.403       .  A
C451        C452   1.389       .  A
C451        F455   1.358       .  S
C452        H456   1.083       .  S
C457        C458   1.407       .  A
C457        C462   1.394       .  A
C457        H467   1.081       .  S
C458        C463   1.497       .  S
C458        C459   1.415       .  A
C459        C460   1.397       .  A
C459        F464   1.356       .  S
C460        C461   1.401       .  A
C460        H465   1.083       .  S
C461        C462   1.407       .  A
C462        F466   1.358       .  S
C463        C468   1.400       .  A
C463        C472   1.401       .  A
C468        C469   1.390       .  A
C468        F473   1.356       .  S
C469        C470   1.414       .  A
C469        H474   1.060       .  S
C470        C471   1.445       .  A
C471        C472   1.407       .  A
C471        F475   1.346       .  S
C472        H476   1.082       .  S
C477        C478   1.408       .  A
C477        C482   1.412       .  A
C477        H487   1.083       .  S
C478        C483   1.484       .  S
C478        C479   1.415       .  A
C479        C480   1.376       .  A
C479        F484   1.357       .  S
C480        C481   1.392       .  A
C480        H485   1.085       .  S
C481        C482   1.409       .  A
C482        F486   1.357       .  S
C483        C488   1.406       .  A
C483        C492   1.373       .  A
C488        C489   1.428       .  A
C488        F493   1.356       .  S
C489        C490   1.422   1_554  A
C489        H494   1.080   1_565  S
C490        C491   1.452       .  A
C491        C492   1.368   1_556  A
C491        F495   1.324       .  S
C492        H496   1.086       .  S
C497        C498   1.411       .  A
C497        C502   1.416       .  A
C497        H507   1.081       .  S
C498        C503   1.499       .  S
C498        C499   1.410       .  A
C499        C500   1.391       .  A
C499        F504   1.358       .  S
C500        C501   1.401       .  A
C500        H505   1.084       .  S
C501        C502   1.407       .  A
C502        F506   1.356       .  S
C503        C508   1.400       .  A
C503        C512   1.381       .  A
C508        C509   1.424       .  A
C508        F513   1.357       .  S
C509        C510   1.435       .  A
C509        H514   1.066       .  S
C510        C511   1.460       .  A
C511        C512   1.383       .  A
C511        F515   1.355       .  S
C512        H516   1.084       .  S
C517        C518   1.385   1_556  A
C517        C522   1.420       .  A
C517        H527   1.083       .  S
C518        C523   1.501       .  S
C518        C519   1.383       .  A
C519        C520   1.399   1_554  A
C519        F524   1.349       .  S
C520        C521   1.432       .  A
C520        H525   1.034   1_545  S
C521        C522   1.468       .  A
C522        F526   1.349       .  S
C523        C528   1.409       .  A
C523        C532   1.405       .  A
C528        C529   1.416       .  A
C528        F533   1.355       .  S
C529        C530   1.407       .  A
C529        H534   1.082       .  S
C530        C531   1.406       .  A
C531        C532   1.393       .  A
C531        F535   1.359       .  S
C532        H536   1.083       .  S
