geometry optimzed in LAMMPS
_audit_creation_date              2020-11-30 
_audit_creation_method            'lammps2cif' 
_symmetry_space_group_name_H-M    'P1' 
_symmetry_Int_Tables_number       1 
_symmetry_cell_setting            triclinic 
loop_ 
_symmetry_equiv_pos_as_xyz 
  x,y,z 
_cell_length_a                    39.74984117 
_cell_length_b                    39.17958996322059 
_cell_length_c                    49.6408204535464 
_cell_angle_alpha                 89.97592842536953 
_cell_angle_beta                  90.02556516519327 
_cell_angle_gamma                 122.21245049313345 
loop_ 
_atom_site_label 
_atom_site_type_symbol 
_atom_site_fract_x 
_atom_site_fract_y 
_atom_site_fract_z 
_atom_site_charge 
In1        In  0.47079971  0.32273951  0.92557333     1.36900
C2          C  0.45217642  0.26753303  0.96373369     0.79500
O3          O  0.47862792  0.29487226  0.88771386    -0.58900
O4          O  0.52985859  0.33718707  0.90956204    -0.49800
C5          C  0.42214318  0.33820742  0.89949122     0.72200
O6          O  0.41011293  0.30392141  0.90952294    -0.44700
C7          C  0.49522543  0.38321281  0.95964342     0.76900
O8          O  0.42711456  0.26338663  0.94630345    -0.56500
O9          O  0.51707649  0.38437251  0.94075936    -0.46600
O10         O  0.48677773  0.29739692  0.96014026    -0.53000
C11         C  0.51602626  0.31405489  0.88950291     0.87100
O12         O  0.45907368  0.36314189  0.90098940    -0.54900
O13         O  0.46073153  0.35219563  0.96037423    -0.58100
In14       In  0.48076855  0.32540517  0.61631689     1.36900
C15         C  0.46014614  0.26591741  0.58135369     0.79500
O16         O  0.47144761  0.35247971  0.57976223    -0.58900
O17         O  0.52885473  0.38390667  0.59787686    -0.49800
C18         C  0.43442946  0.34591070  0.64033138     0.72200
O19         O  0.42083460  0.31107967  0.63077187    -0.44700
C20         C  0.52388987  0.31725480  0.65435351     0.76900
O21         O  0.43532372  0.26519540  0.59756461    -0.56500
O22         O  0.53881419  0.34055436  0.63442999    -0.46600
O23         O  0.49543048  0.29461189  0.58474465    -0.53000
C24         C  0.50671511  0.38211750  0.57897336     0.87100
O25         O  0.47171123  0.36899870  0.63945401    -0.54900
O26         O  0.48638811  0.29775346  0.65507858    -0.58100
In27       In  0.64331602  0.16403579  0.60908455     1.36900
C28         C  0.70219846  0.20502739  0.57401415     0.79500
O29         O  0.62177514  0.12346379  0.57325669    -0.58900
O30         O  0.58327912  0.13989094  0.59060019    -0.49800
C31         C  0.62875010  0.10040084  0.63785437     0.72200
O32         O  0.66338275  0.12661532  0.63003114    -0.44700
C33         C  0.64324550  0.22048616  0.63959650     0.76900
O34         O  0.70545612  0.18608178  0.59339505    -0.56500
O35         O  0.62286715  0.20588601  0.61859814    -0.46600
O36         O  0.67087223  0.20548712  0.57401557    -0.53000
C37         C  0.58924368  0.12165199  0.57208904     0.87100
O38         O  0.60260971  0.10837285  0.63287527    -0.54900
O39         O  0.66391123  0.20587425  0.64571266    -0.58100
In40       In  0.47420021  0.14386835  0.42821823     1.36900
C41         C  0.45618761  0.17915904  0.46651268     0.79500
O42         O  0.46529893  0.10388357  0.46300199    -0.58900
O43         O  0.52173968  0.13415604  0.44353126    -0.49800
C44         C  0.42500349  0.07626001  0.40202695     0.72200
O45         O  0.41348763  0.09790280  0.41211184    -0.44700
C46         C  0.51739235  0.20076101  0.39134774     0.76900
O47         O  0.43008146  0.15300772  0.45093881    -0.56500
O48         O  0.53234556  0.19161578  0.41022407    -0.46600
O49         O  0.49126206  0.18959467  0.46098764    -0.53000
C50         C  0.50023607  0.11142015  0.46242905     0.87100
O51         O  0.46181683  0.09059332  0.40360534    -0.54900
O52         O  0.47987990  0.18069127  0.39112719    -0.58100
In53       In  0.47265470  0.15429976  0.11945068     1.36900
C54         C  0.45361090  0.18885546  0.08113331     0.79500
O55         O  0.47990990  0.19160301  0.15668213    -0.58900
O56         O  0.53161302  0.20244614  0.13657563    -0.49800
C57         C  0.42208491  0.08718469  0.14594752     0.72200
O58         O  0.41164651  0.10988783  0.13615228    -0.44700
C59         C  0.49800409  0.11999362  0.08597453     0.76900
O60         O  0.42784541  0.16220187  0.09659953    -0.56500
O61         O  0.51914225  0.14201376  0.10523296    -0.46600
O62         O  0.48893230  0.20025131  0.08678516    -0.53000
C63         C  0.51741102  0.21150721  0.15596682     0.87100
O64         O  0.45862605  0.10033700  0.14408516    -0.54900
O65         O  0.46401988  0.11476659  0.08432986    -0.58100
In66       In  0.63313617  0.49025322  0.10825652     1.36900
C67         C  0.69347764  0.51406640  0.07414397     0.79500
O68         O  0.65339587  0.47169156  0.14548521    -0.58900
O69         O  0.61191625  0.42643639  0.11894429    -0.49800
C70         C  0.61808905  0.53696700  0.13797131     0.72200
O71         O  0.65314026  0.54715658  0.13205518    -0.44700
C72         C  0.58065491  0.47319569  0.06963915     0.76900
O73         O  0.69250466  0.53828320  0.09037910    -0.56500
O74         O  0.57457285  0.44837174  0.08807729    -0.46600
O75         O  0.66601881  0.47782273  0.07710919    -0.53000
C76         C  0.63229858  0.43452260  0.14002980     0.87100
O77         O  0.59137993  0.50213910  0.13041753    -0.54900
O78         O  0.61224766  0.50723229  0.07176014    -0.58100
C79         C  0.64398571  0.33274217  0.23290045     0.88500
C80         C  0.60797209  0.29690898  0.21855020    -0.51800
C81         C  0.60975758  0.30017430  0.19100666     0.11400
C82         C  0.64680905  0.33899626  0.18068273     0.22300
C83         C  0.68075893  0.33518573  0.22028811    -0.52500
C84         C  0.68220584  0.33876616  0.19277855     0.11500
C85         C  0.64535948  0.37045757  0.22246375    -0.52000
C86         C  0.64638058  0.37360168  0.19504287     0.12000
H87         H  0.58429540  0.27087892  0.22913562     0.16600
H88         H  0.64838150  0.34141976  0.15838013     0.02300
H89         H  0.70391412  0.33539331  0.23203698     0.16900
H90         H  0.64505180  0.39246933  0.23561214     0.16700
C91         C  0.64169800  0.33069940  0.31726171     0.88500
C92         C  0.67935040  0.33489466  0.32950126    -0.51800
C93         C  0.68001497  0.33586402  0.35705607     0.11400
C94         C  0.64298334  0.33221464  0.36962843     0.22300
C95         C  0.60674101  0.29233033  0.33034919    -0.52500
C96         C  0.60775596  0.29319874  0.35795108     0.11500
C97         C  0.63980417  0.36594323  0.32944495    -0.52000
C98         C  0.64014580  0.36638628  0.35705885     0.12000
H99         H  0.70355213  0.33784568  0.31744988     0.16600
H100        H  0.64358046  0.33283811  0.39202279     0.02300
H101        H  0.58439061  0.26649835  0.31889355     0.16900
H102        H  0.63704148  0.38747054  0.31741499     0.16700
In103      In  0.63930695  0.50439079  0.42686597     1.36900
C104        C  0.69770799  0.52573963  0.46228633     0.79500
O105        O  0.61306727  0.51284956  0.46415862    -0.58900
O106        O  0.58457816  0.45403558  0.44704680    -0.49800
C107        C  0.62033061  0.55174656  0.40150325     0.72200
O108        O  0.65575062  0.56369377  0.40766150    -0.44700
C109        C  0.64604904  0.45929549  0.38914555     0.76900
O110        O  0.69425624  0.55163392  0.44963203    -0.56500
O111        O  0.61898625  0.44510009  0.40668865    -0.46600
O112        O  0.67426850  0.48992336  0.45487933    -0.53000
C113        C  0.58614258  0.47616690  0.46607746     0.87100
O114        O  0.59529848  0.51521869  0.40664950    -0.54900
O115        O  0.66947359  0.49711866  0.39029402    -0.58100
In116      In  0.82417634  0.50079337  0.92783832     1.36900
C117        C  0.78633094  0.52027159  0.96282060     0.79500
O118        O  0.78592340  0.49148337  0.89122392    -0.58900
O119        O  0.78088704  0.44014312  0.90951751    -0.49800
C120        C  0.89133364  0.54902035  0.90110666     0.72200
O121        O  0.86979308  0.56122992  0.90995113    -0.44700
C122        C  0.85401604  0.47832044  0.96665518     0.76900
O123        O  0.81282196  0.54617543  0.94730511    -0.56500
O124        O  0.83238967  0.45443467  0.94823883    -0.46600
O125        O  0.77704114  0.48461411  0.95876276    -0.53000
C126        C  0.76912698  0.45360315  0.89117281     0.87100
O127        O  0.87745360  0.51195468  0.90445586    -0.54900
O128        O  0.86220749  0.51393378  0.96434639    -0.58100
In129      In  0.81759886  0.34032072  0.12040032     1.36900
C130        C  0.77712992  0.28122773  0.08483227     0.79500
O131        O  0.77815129  0.30856829  0.15669050    -0.58900
O132        O  0.78069058  0.36027291  0.14132597    -0.49800
C133        C  0.88450909  0.35980223  0.14560363     0.72200
O134        O  0.85973597  0.32427563  0.13794203    -0.44700
C135        C  0.84891126  0.39498802  0.08155447     0.76900
O136        O  0.80314523  0.28222696  0.09994748    -0.56500
O137        O  0.82576977  0.39491293  0.09899248    -0.46600
O138        O  0.76936731  0.30779423  0.08966234    -0.53000
C139        C  0.76592916  0.33231415  0.15853075     0.87100
O140        O  0.87382309  0.38454758  0.14221977    -0.54900
O141        O  0.85763798  0.36877271  0.08482830    -0.58100
In142      In  0.62767146  0.15000271  0.93663430     1.36900
C143        C  0.68720225  0.19144129  0.97117979     0.79500
O144        O  0.65027253  0.19401995  0.90134798    -0.58900
O145        O  0.60312254  0.18778360  0.92525110    -0.49800
C146        C  0.61352840  0.08841165  0.90578421     0.72200
O147        O  0.64842846  0.11595429  0.91215948    -0.44700
C148        C  0.57688369  0.11047410  0.97618271     0.76900
O149        O  0.68553841  0.16469306  0.95608068    -0.56500
O150        O  0.56988185  0.12830221  0.95796353    -0.46600
O151        O  0.66122482  0.19970808  0.96660220    -0.53000
C152        C  0.62632915  0.20530422  0.90577899     0.87100
O153        O  0.58663264  0.09406460  0.91330085    -0.54900
O154        O  0.60821461  0.11036042  0.97317917    -0.58100
C155        C  0.64822248  0.33137365  0.73226810     0.88500
C156        C  0.61190459  0.32661381  0.71738724    -0.51800
C157        C  0.61511957  0.32680151  0.68987886     0.11400
C158        C  0.65388155  0.33104092  0.68008744     0.22300
C159        C  0.65260788  0.29716355  0.72148184    -0.52500
C160        C  0.65505925  0.29650098  0.69406696     0.11500
C161        C  0.68409030  0.37029036  0.72077777    -0.52000
C162        C  0.68738652  0.37012177  0.69337823     0.12000
H163        H  0.58700991  0.32501474  0.72767817     0.16600
H164        H  0.65600901  0.33116316  0.65782402     0.02300
H165        H  0.65294448  0.27492901  0.73438377     0.16900
H166        H  0.70506616  0.39566133  0.73321328     0.16700
C167        C  0.64422976  0.32692910  0.81627888     0.88500
C168        C  0.68059719  0.36287623  0.83016314    -0.51800
C169        C  0.68049385  0.35916117  0.85762126     0.11400
C170        C  0.64391693  0.32022383  0.86839853     0.22300
C171        C  0.64419217  0.28958137  0.82589483    -0.52500
C172        C  0.64362370  0.28573065  0.85325581     0.11500
C173        C  0.60786634  0.32378410  0.82993692    -0.52000
C174        C  0.60792885  0.32061159  0.85743467     0.12000
H175        H  0.70462171  0.38807425  0.81918596     0.16600
H176        H  0.64408668  0.31781794  0.89068140     0.02300
H177        H  0.64440796  0.26799886  0.81225985     0.16900
H178        H  0.58528293  0.32564847  0.81893960     0.16700
In179      In  0.81939291  0.49359558  0.60710759     1.36900
C180        C  0.78106805  0.51499060  0.57399427     0.79500
O181        O  0.86182767  0.51831796  0.57230321    -0.58900
O182        O  0.83616836  0.45658575  0.58288074    -0.49800
C183        C  0.88128624  0.53848420  0.63907651     0.72200
O184        O  0.85766661  0.54933359  0.63249567    -0.44700
C185        C  0.76391054  0.43452261  0.63823668     0.76900
O186        O  0.80519761  0.53894488  0.59146875    -0.56500
O187        O  0.78042430  0.42857395  0.61877166    -0.46600
O188        O  0.77391960  0.47966900  0.57525147    -0.53000
C189        C  0.85816359  0.48508935  0.56701266     0.87100
O190        O  0.87201354  0.50426959  0.63063744    -0.54900
O191        O  0.77575021  0.47112835  0.64212727    -0.58100
In192      In  0.82652637  0.34693805  0.42105418     1.36900
C193        C  0.79006720  0.29186654  0.45971923     0.79500
O194        O  0.86865776  0.37849139  0.45515571    -0.58900
O195        O  0.84164504  0.40724534  0.43677644    -0.49800
C196        C  0.89041191  0.36225639  0.39361661     0.72200
O197        O  0.86602947  0.32777210  0.40312426    -0.44700
C198        C  0.76971804  0.33550972  0.38629219     0.76900
O199        O  0.81188822  0.28930894  0.44245797    -0.56500
O200        O  0.78266240  0.36130666  0.40486866    -0.46600
O201        O  0.78443532  0.32011236  0.45584186    -0.53000
C202        C  0.86377518  0.40769373  0.45519263     0.87100
O203        O  0.88059410  0.38778986  0.39627527    -0.54900
O204        O  0.78616318  0.31552982  0.38507357    -0.58100
In205      In  0.47605047  0.83463416  0.93548090     1.36900
C206        C  0.49742788  0.79703896  0.96959670     0.79500
O207        O  0.49721888  0.87711431  0.97056840    -0.58900
O208        O  0.43724116  0.85079805  0.95779074    -0.49800
C209        C  0.52295974  0.89909296  0.90548227     0.72200
O210        O  0.53344626  0.87537169  0.91307017    -0.44700
C211        C  0.41974333  0.77697806  0.90371093     0.76900
O212        O  0.52092956  0.82102672  0.95190757    -0.56500
O213        O  0.41252515  0.79258706  0.92321192    -0.46600
O214        O  0.46257353  0.78961063  0.96815356    -0.53000
C215        C  0.46403806  0.87308550  0.97447028     0.87100
O216        O  0.48778909  0.88817515  0.91133667    -0.54900
O217        O  0.45630824  0.79121093  0.89983430    -0.58100
In218      In  0.32032483  0.83243870  0.11642586     1.36900
C219        C  0.26923834  0.79477817  0.07604167     0.79500
O220        O  0.35211679  0.87656228  0.08313885    -0.58900
O221        O  0.38197198  0.85175083  0.10277837    -0.49800
C222        C  0.33082081  0.89547648  0.14400285     0.72200
O223        O  0.29798785  0.87046739  0.13307258    -0.44700
C224        C  0.30946804  0.77534426  0.15181346     0.76900
O225        O  0.26579050  0.81771873  0.09205086    -0.56500
O226        O  0.33505147  0.78840716  0.13330770    -0.46600
O227        O  0.29605270  0.78833330  0.08213469    -0.53000
C228        C  0.38222731  0.87390297  0.08422185     0.87100
O229        O  0.35686272  0.88649976  0.14269952    -0.54900
O230        O  0.28910594  0.79137614  0.15233883    -0.58100
In231      In  0.31804989  0.48550605  0.92481164     1.36900
C232        C  0.25951755  0.46699848  0.95938723     0.79500
O233        O  0.34272406  0.47583151  0.96256114    -0.58900
O234        O  0.37593521  0.53335237  0.94373665    -0.49800
C235        C  0.33410537  0.43585706  0.89981074     0.72200
O236        O  0.29958633  0.42444186  0.90794830    -0.44700
C237        C  0.31215258  0.53032045  0.88648384     0.76900
O238        O  0.26063255  0.44030528  0.94595346    -0.56500
O239        O  0.33680670  0.54491915  0.90557043    -0.46600
O240        O  0.28580525  0.50269496  0.95334059    -0.53000
C241        C  0.37248376  0.51131045  0.96342346     0.87100
O242        O  0.35960371  0.47286161  0.90294592    -0.54900
O243        O  0.29046013  0.49230678  0.88660703    -0.58100
In244      In  0.48498130  0.65291855  0.11640345     1.36900
C245        C  0.50686546  0.71292116  0.08159733     0.79500
O246        O  0.49421156  0.62790941  0.07854938    -0.58900
O247        O  0.43714818  0.59507096  0.09693522    -0.49800
C248        C  0.53121826  0.63410176  0.14273295     0.72200
O249        O  0.54322912  0.66995893  0.13615936    -0.44700
C250        C  0.43957340  0.65957449  0.15332573     0.76900
O251        O  0.53210129  0.70952324  0.09473526    -0.56500
O252        O  0.42572169  0.63470392  0.13414996    -0.46600
O253        O  0.47130434  0.68855226  0.08821862    -0.53000
C254        C  0.45892478  0.59834772  0.07735178     0.87100
O255        O  0.49523936  0.60870044  0.13751882    -0.54900
O256        O  0.47706177  0.68108168  0.15398957    -0.58100
In257      In  0.31948434  0.48605811  0.61373798     1.36900
C258        C  0.25997140  0.46564179  0.57967550     0.79500
O259        O  0.29259847  0.49172633  0.65255116    -0.58900
O260        O  0.33695401  0.54502866  0.63296106    -0.49800
C261        C  0.34118660  0.44042084  0.63799587     0.72200
O262        O  0.30576728  0.42653169  0.63062738    -0.44700
C263        C  0.37183363  0.51182170  0.57417132     0.76900
O264        O  0.26110938  0.43962999  0.59398492    -0.56500
O265        O  0.37462371  0.53476077  0.59306018    -0.46600
O266        O  0.28646535  0.50160645  0.58484777    -0.53000
C267        C  0.31313962  0.52979012  0.65246602     0.87100
O268        O  0.36465421  0.47778034  0.63449588    -0.54900
O269        O  0.34375844  0.47560082  0.57625488    -0.58100
In270      In  0.13645015  0.49557568  0.10501786     1.36900
C271        C  0.17233340  0.47301006  0.07056223     0.79500
O272        O  0.09494938  0.47625439  0.06991734    -0.58900
O273        O  0.12166344  0.53661597  0.08412701    -0.49800
C274        C  0.07301936  0.45042907  0.13558776     0.72200
O275        O  0.09501072  0.43812455  0.12782336    -0.44700
C276        C  0.19485932  0.55186723  0.13588731     0.76900
O277        O  0.14861913  0.44916633  0.08825645    -0.56500
O278        O  0.18122388  0.55956391  0.11554805    -0.46600
O279        O  0.17992506  0.50842501  0.07207586    -0.53000
C280        C  0.09986047  0.51050217  0.06683083     0.87100
O281        O  0.08492988  0.48627456  0.12932360    -0.54900
O282        O  0.17824482  0.51472211  0.14112468    -0.58100
In283      In  0.48108579  0.66339787  0.42664697     1.36900
C284        C  0.49937069  0.71990597  0.46365470     0.79500
O285        O  0.47436257  0.69290999  0.38936963    -0.58900
O286        O  0.42230841  0.64612967  0.40827798    -0.49800
C287        C  0.52934565  0.64697263  0.40088449     0.72200
O288        O  0.54139866  0.68168774  0.41010119    -0.44700
C289        C  0.45649506  0.60521530  0.46269863     0.76900
O290        O  0.52518548  0.72196004  0.44778732    -0.56500
O291        O  0.43431576  0.60341730  0.44382564    -0.46600
O292        O  0.46433863  0.69152557  0.45896032    -0.53000
C293        C  0.43687672  0.67136940  0.38933444     0.87100
O294        O  0.49253631  0.62190748  0.40309370    -0.58100
O295        O  0.49142671  0.63555351  0.46239753    -0.58100
C296        C  0.31431901  0.65930361  0.31055005     0.88500
C297        C  0.27765863  0.62026958  0.32122230    -0.51800
C298        C  0.27357729  0.61935623  0.34858354     0.11400
C299        C  0.30711407  0.65748323  0.36266692     0.22300
C300        C  0.31039130  0.69353921  0.32183272    -0.52500
C301        C  0.30708257  0.69298915  0.34923695     0.11500
C302        C  0.34983720  0.66265787  0.32569293    -0.52000
C303        C  0.34578413  0.66131171  0.35316866     0.12000
H304        H  0.25672094  0.59563140  0.30827714     0.16600
H305        H  0.30432036  0.65642910  0.38491037     0.02300
H306        H  0.31088392  0.71655991  0.30930729     0.16900
H307        H  0.37481291  0.66418097  0.31557626     0.16700
C308        C  0.31579071  0.65627971  0.22661496     0.88500
C309        C  0.35033732  0.65517140  0.21352428    -0.51800
C310        C  0.34746603  0.65152699  0.18605260     0.11400
C311        C  0.31072527  0.64974429  0.17446080     0.22300
C312        C  0.31563687  0.69128913  0.21250467    -0.52500
C313        C  0.31334082  0.68798526  0.18498037     0.11500
C314        C  0.27794322  0.61777754  0.21666148    -0.52000
C315        C  0.27494820  0.61443019  0.18927637     0.12000
H316        H  0.37407666  0.65608904  0.22498249     0.16600
H317        H  0.30913633  0.64717924  0.15216465     0.02300
H318        H  0.31872155  0.71695103  0.22323448     0.16900
H319        H  0.25528358  0.59541420  0.23008439     0.16700
In320      In  0.31873992  0.82244843  0.43611674     1.36900
C321        C  0.25945333  0.78047275  0.47060428     0.79500
O322        O  0.29685558  0.78046673  0.39980560    -0.58900
O323        O  0.34002024  0.78172139  0.42556990    -0.49800
C324        C  0.33390544  0.88516015  0.40619129     0.72200
O325        O  0.29906772  0.85904252  0.41372433    -0.44700
C326        C  0.37166289  0.86436369  0.47389305     0.76900
O327        O  0.25808505  0.80305332  0.45306900    -0.56500
O328        O  0.37796429  0.84599735  0.45567578    -0.46600
O329        O  0.28905810  0.77705744  0.46898505    -0.53000
C330        C  0.31853210  0.76670400  0.40504120     0.87100
O331        O  0.36005295  0.87759479  0.41217331    -0.54900
O332        O  0.33935597  0.86290984  0.47209158    -0.58100
In333      In  0.48536553  0.84021940  0.61803296     1.36900
C334        C  0.50115933  0.80248058  0.58028352     0.79500
O335        O  0.47792396  0.80319292  0.65540523    -0.58900
O336        O  0.42654919  0.79476823  0.63607350    -0.49800
C337        C  0.53624898  0.90851354  0.64302963     0.72200
O338        O  0.54682832  0.88587819  0.63333392    -0.44700
C339        C  0.46068479  0.87314030  0.58325568     0.76900
O340        O  0.52743447  0.82677271  0.59659573    -0.56500
O341        O  0.43941649  0.85219664  0.60282634    -0.46600
O342        O  0.46672626  0.79481782  0.58491301    -0.53000
C343        C  0.44046762  0.78463374  0.65504019     0.87100
O344        O  0.49957098  0.89486853  0.64170541    -0.54900
O345        O  0.49484637  0.87863251  0.58219014    -0.58100
In346      In  0.13912243  0.49601044  0.43365812     1.36900
C347        C  0.17548302  0.47348171  0.46786166     0.79500
O348        O  0.18378643  0.51815223  0.39918204    -0.58900
O349        O  0.17784103  0.56075996  0.42146368    -0.49800
C350        C  0.07721211  0.45179029  0.40160741     0.72200
O351        O  0.10102783  0.44095844  0.40768832    -0.44700
C352        C  0.10011108  0.50561958  0.47296478     0.76900
O353        O  0.15209066  0.44990954  0.44994695    -0.56500
O354        O  0.12548249  0.53467233  0.45868786    -0.46600
O355        O  0.18279501  0.50882992  0.46660673    -0.53000
C356        C  0.19516940  0.55473087  0.40260271     0.87100
O357        O  0.08655433  0.48589924  0.41033629    -0.54900
O358        O  0.09332215  0.47145222  0.46644468    -0.58100
In359      In  0.13016249  0.63793467  0.62246307     1.36900
C360        C  0.16895827  0.69355610  0.58466815     0.79500
O361        O  0.17003754  0.66959536  0.65850395    -0.58900
O362        O  0.17161682  0.62153463  0.64037023    -0.49800
C363        C  0.06661770  0.62370147  0.64968285     0.72200
O364        O  0.09272592  0.65861043  0.64168763    -0.44700
C365        C  0.09429756  0.57960005  0.58635710     0.76900
O366        O  0.14174138  0.69230060  0.59851140    -0.56500
O367        O  0.11408495  0.57770129  0.60555754    -0.46600
O368        O  0.17879059  0.66929061  0.59186904    -0.53000
C369        C  0.18525334  0.64839021  0.65833325     0.87100
O370        O  0.07448349  0.59693341  0.64564727    -0.54900
O371        O  0.09112501  0.60984279  0.58652585    -0.58100
In372      In  0.14683804  0.65649437  0.92059067     1.36900
C373        C  0.18865881  0.71243970  0.95780599     0.79500
O374        O  0.10851830  0.62945926  0.95685875    -0.58900
O375        O  0.12706378  0.59460924  0.93611980    -0.49800
C376        C  0.08145517  0.64228836  0.89560266     0.72200
O377        O  0.10652713  0.67653894  0.90517217    -0.44700
C378        C  0.20002080  0.66378486  0.88405053     0.76900
O379        O  0.16675087  0.71611742  0.94117431    -0.56500
O380        O  0.18818192  0.63935287  0.90345601    -0.46600
O381        O  0.19178521  0.68257365  0.95383730    -0.53000
C382        C  0.10862689  0.59745685  0.95581878     0.87100
O383        O  0.09131833  0.61666329  0.89689351    -0.54900
O384        O  0.18441549  0.68459824  0.88301659    -0.58100
C385        C  0.31441482  0.65350851  0.72696663     0.88500
C386        C  0.34911829  0.69258368  0.71448200    -0.51800
C387        C  0.34810939  0.69297970  0.68692239     0.11400
C388        C  0.31300819  0.65447598  0.67465372     0.22300
C389        C  0.27647828  0.64944510  0.71526327    -0.52500
C390        C  0.27575143  0.64966002  0.68769126     0.11500
C391        C  0.31672434  0.61916362  0.71373193    -0.52000
C392        C  0.31625450  0.62002819  0.68614374     0.12000
H393        H  0.37162604  0.71775773  0.72633156     0.16600
H394        H  0.31240106  0.65490686  0.65226452     0.02300
H395        H  0.25205308  0.64537068  0.72760325     0.16900
H396        H  0.31975754  0.59726048  0.72508093     0.16700
C397        C  0.31829168  0.65593765  0.81117258     0.88500
C398        C  0.31860620  0.62060374  0.82461773    -0.51800
C399        C  0.32113522  0.62331528  0.85214235     0.11400
C400        C  0.32264793  0.66059855  0.86343447     0.22300
C401        C  0.28334271  0.65614872  0.82446162    -0.52500
C402        C  0.28553585  0.65822926  0.85201558     0.11500
C403        C  0.35597142  0.69416585  0.82176302    -0.52000
C404        C  0.35817031  0.69693494  0.84922799     0.12000
H405        H  0.31805635  0.59654066  0.81338421     0.16600
H406        H  0.32428231  0.66206340  0.88576980     0.02300
H407        H  0.25855523  0.65328590  0.81317761     0.16900
H408        H  0.37872099  0.71713674  0.80868858     0.16700
C409        C  0.31520694  0.65313408  0.75684624    -0.11300
C410        C  0.31618751  0.65373359  0.78131962    -0.12900
C411        C  0.25414370  0.65464345  0.87025619    -0.14500
C412        C  0.22985099  0.66773938  0.86428375    -0.29600
H413        H  0.25247026  0.64231869  0.89017185     0.14600
H414        H  0.23297220  0.68291118  0.84529668     0.15100
C415        C  0.21699952  0.65489701  0.67724672    -0.14500
C416        C  0.24168638  0.64249735  0.67084611    -0.29600
H417        H  0.22159795  0.67190619  0.69560591     0.14600
H418        H  0.23855189  0.62853909  0.65133012     0.15100
C419        C  0.08259555  0.51150472  0.49625506    -0.16500
C420        C  0.07433573  0.51950154  0.51767472     0.07500
C421        C  0.07317640  0.53389610  0.54341733     0.09400
C422        C  0.07937973  0.55158024  0.56443186    -0.17400
C423        C  0.37599233  0.72716920  0.66938299    -0.14500
C424        C  0.41470946  0.75316170  0.67485811    -0.29600
H425        H  0.36434773  0.72908918  0.65001654     0.14600
H426        H  0.42780233  0.75006850  0.69316727     0.15100
C427        C  0.18528883  0.71795478  0.56089388    -0.16500
C428        C  0.19791132  0.73352183  0.53919302     0.07500
C429        C  0.21405503  0.74899478  0.51341218     0.09400
C430        C  0.23161269  0.76237136  0.49242490    -0.17400
C431        C  0.39769590  0.88270974  0.49636811    -0.16500
C432        C  0.41580722  0.89130885  0.51720694     0.07500
C433        C  0.43325445  0.89276950  0.54214627     0.09400
C434        C  0.44622099  0.88703740  0.56233198    -0.17400
C435        C  0.22680115  0.58865889  0.38677801    -0.14500
C436        C  0.24054230  0.58418273  0.36315881    -0.29600
H437        H  0.23840633  0.61872133  0.39478064     0.14600
H438        H  0.22677864  0.55446222  0.35404409     0.15100
C439        C  0.30441339  0.72426604  0.36428735    -0.14500
C440        C  0.31914072  0.73513016  0.38931101    -0.29600
H441        H  0.29225688  0.73999775  0.35419024     0.14600
H442        H  0.33420742  0.72169368  0.39848826     0.15100
C443        C  0.31809916  0.65936828  0.25637675    -0.11300
C444        C  0.31770692  0.66006014  0.28081440    -0.12900
C445        C  0.50887143  0.74541233  0.48691529    -0.16500
C446        C  0.51274561  0.76114792  0.50859399     0.07500
C447        C  0.51302188  0.77559066  0.53481738     0.09400
C448        C  0.50970910  0.78712378  0.55665814    -0.17400
C449        C  0.41205396  0.67513201  0.36869286    -0.14500
C450        C  0.37300784  0.65940359  0.37283981    -0.29600
H451        H  0.42614142  0.69170779  0.35034052     0.14600
H452        H  0.36018506  0.64533951  0.39212249     0.15100
C453        C  0.24033707  0.57989664  0.17540851    -0.14500
C454        C  0.22831179  0.58466103  0.15120457    -0.29600
H455        H  0.22385283  0.55088282  0.18555392     0.14600
H456        H  0.24303347  0.61446178  0.14215915     0.15100
C457        C  0.08489774  0.52008659  0.04380052    -0.16500
C458        C  0.07968618  0.53105946  0.02246994     0.07500
C459        C  0.08239687  0.54842480  0.99715006     0.09400
C460        C  0.09141609  0.56805034  0.97681843    -0.17400
C461        C  0.19051514  0.46098896  0.48963243    -0.16500
C462        C  0.20222177  0.45491102  0.51048616     0.07500
C463        C  0.21708141  0.45284405  0.53601029     0.09400
C464        C  0.23335669  0.45573876  0.55722745    -0.17400
C465        C  0.30918052  0.55467728  0.67313987    -0.14500
C466        C  0.32138385  0.59323914  0.66779079    -0.29600
H467        H  0.29418865  0.54077042  0.69195494     0.14600
H468        H  0.33351246  0.60541138  0.64798910     0.15100
C469        C  0.39684364  0.52626299  0.55088826    -0.16500
C470        C  0.41378082  0.53926777  0.52976983     0.07500
C471        C  0.43009533  0.55731516  0.50470120     0.09400
C472        C  0.44241279  0.57666220  0.48428030    -0.17400
C473        C  0.37499132  0.64731157  0.16813057    -0.14500
C474        C  0.41389666  0.66340871  0.17315845    -0.29600
H475        H  0.36284093  0.63217439  0.14900997     0.14600
H476        H  0.42734684  0.68105372  0.19127204     0.15100
C477        C  0.18757881  0.46090332  0.04876304    -0.16500
C478        C  0.19999802  0.45572816  0.02794161     0.07500
C479        C  0.21594728  0.45477093  0.00263136     0.09400
C480        C  0.23291962  0.45800880  0.98169486    -0.17400
C481        C  0.39850918  0.52607455  0.98633320    -0.16500
C482        C  0.41570532  0.53860354  0.00749631     0.07500
C483        C  0.43190149  0.55505476  0.03303932     0.09400
C484        C  0.44421661  0.57233717  0.05425555    -0.17400
C485        C  0.30873360  0.55585617  0.86596831    -0.14500
C486        C  0.32483181  0.59548660  0.87048086    -0.29600
H487        H  0.29141730  0.54181888  0.84788481     0.14600
H488        H  0.33958591  0.60814091  0.88959947     0.15100
C489        C  0.24675374  0.77940832  0.05145343    -0.16500
C490        C  0.23259964  0.76789757  0.02925958     0.07500
C491        C  0.21855650  0.75350393  0.00285427     0.09400
C492        C  0.20616925  0.73785915  0.98110165    -0.17400
C493        C  0.30411697  0.74420553  0.17144338    -0.14500
C494        C  0.31715069  0.71945522  0.16611269    -0.29600
H495        H  0.28845086  0.74093735  0.19010847     0.14600
H496        H  0.33002665  0.72111399  0.14648757     0.15100
C497        C  0.50964622  0.78173518  0.99136876    -0.16500
C498        C  0.51626403  0.77022468  0.01213637     0.07500
C499        C  0.51922834  0.75565232  0.03760249     0.09400
C500        C  0.51680712  0.73948404  0.05888190    -0.17400
C501        C  0.41239473  0.89149667  0.06396303    -0.16500
C502        C  0.43176320  0.89892683  0.04375199     0.07500
C503        C  0.44757983  0.89821927  0.01855464     0.09400
C504        C  0.45659658  0.89014083  0.99745856    -0.17400
C505        C  0.38712973  0.74388955  0.88782154    -0.14500
C506        C  0.39212609  0.73143040  0.86375604    -0.29600
H507        H  0.35742287  0.72983068  0.89625733     0.14600
H508        H  0.42119734  0.74743292  0.85420449     0.15100
C509        C  0.04004439  0.42613042  0.38798117    -0.16500
C510        C  0.00547073  0.40651480  0.38146979     0.07500
C511        C  0.96361438  0.38671114  0.37967452     0.09400
C512        C  0.92866171  0.37322162  0.38320342    -0.17400
C513        C  0.91801789  0.56402163  0.65317992    -0.16500
C514        C  0.95227709  0.58300391  0.66040226     0.07500
C515        C  0.99388955  0.60158991  0.66299746     0.09400
C516        C  0.02866340  0.61391176  0.65990602    -0.17400
C517        C  0.87913509  0.43699026  0.47634438    -0.16500
C518        C  0.88518677  0.45578484  0.49683993     0.07500
C519        C  0.88367543  0.47106165  0.52216911     0.09400
C520        C  0.87537353  0.47934160  0.54347631    -0.17400
C521        C  0.73274377  0.40054900  0.65431915    -0.14500
C522        C  0.71958825  0.40516191  0.67815772    -0.29600
H523        H  0.72111178  0.37046003  0.64637494     0.14600
H524        H  0.73339473  0.43501838  0.68706345     0.15100
C525        C  0.64553912  0.33139917  0.76205679    -0.11300
C526        C  0.64455370  0.33023894  0.78651035    -0.12900
C527        C  0.60406158  0.05109871  0.89345176    -0.16500
C528        C  0.59087908  0.01602297  0.88842491     0.07500
C529        C  0.57051164  0.97340244  0.88851655     0.09400
C530        C  0.54991490  0.93783204  0.89354409    -0.17400
C531        C  0.62556277  0.23734789  0.89060130    -0.14500
C532        C  0.64384955  0.25197675  0.86683793    -0.29600
H533        H  0.60858849  0.24893906  0.89939839     0.14600
H534        H  0.65828687  0.23842508  0.85689097     0.15100
C535        C  0.03524781  0.42488184  0.14854195    -0.16500
C536        C  0.00068266  0.40563914  0.15509784     0.07500
C537        C  0.95891910  0.38614305  0.15755399     0.09400
C538        C  0.92375256  0.37233458  0.15487084    -0.17400
C539        C  0.71378569  0.20857255  0.99380091    -0.16500
C540        C  0.73055822  0.22147474  0.01512431     0.07500
C541        C  0.74663228  0.23745036  0.04088550     0.09400
C542        C  0.75984193  0.25442782  0.06215864    -0.17400
C543        C  0.04262982  0.63150384  0.88642449    -0.16500
C544        C  0.00744042  0.61731789  0.88333032     0.07500
C545        C  0.96541789  0.59629284  0.88476303     0.09400
C546        C  0.93039541  0.57570338  0.89005453    -0.17400
C547        C  0.86566753  0.46536739  0.98988797    -0.16500
C548        C  0.86997377  0.45378120  0.01132290     0.07500
C549        C  0.86849678  0.43788849  0.03708900     0.09400
C550        C  0.86205302  0.42081606  0.05841026    -0.17400
C551        C  0.73809214  0.42719471  0.87133638    -0.14500
C552        C  0.71306021  0.38752281  0.87610323    -0.29600
H553        H  0.73475262  0.44078188  0.85329383     0.14600
H554        H  0.71514725  0.37519720  0.89519637     0.15100
C555        C  0.60846058  0.57829615  0.39148383    -0.16500
C556        C  0.59486294  0.59898775  0.38723668     0.07500
C557        C  0.57529187  0.62041862  0.38700055     0.09400
C558        C  0.55572422  0.63520454  0.39095647    -0.17400
C559        C  0.76534975  0.52725728  0.55253381    -0.16500
C560        C  0.75366815  0.53396446  0.53190616     0.07500
C561        C  0.73919547  0.53720120  0.50652191     0.09400
C562        C  0.72342234  0.53515701  0.48523027    -0.17400
C563        C  0.71350713  0.34208719  0.37414072    -0.14500
C564        C  0.73776216  0.32915431  0.36767736    -0.29600
H565        H  0.71677576  0.35605603  0.39366892     0.14600
H566        H  0.73309480  0.31235969  0.34920491     0.15100
C567        C  0.65035716  0.43347216  0.36933237    -0.14500
C568        C  0.63470379  0.39403730  0.37441701    -0.29600
H569        H  0.66849694  0.44726740  0.35152164     0.14600
H570        H  0.61957127  0.38171587  0.39347863     0.15100
C571        C  0.71531914  0.34504958  0.17515818    -0.14500
C572        C  0.73614517  0.32734738  0.17878510    -0.29600
H573        H  0.72032362  0.36254925  0.15695296     0.14600
H574        H  0.72947001  0.30710896  0.19568754     0.15100
C575        C  0.64239512  0.33006677  0.26280344    -0.11300
C576        C  0.64149869  0.32983872  0.28731282    -0.12900
C577        C  0.60841590  0.56401478  0.15015270    -0.16500
C578        C  0.59579433  0.58519579  0.15567498     0.07500
C579        C  0.57660934  0.60696850  0.15674464     0.09400
C580        C  0.55713859  0.62191300  0.15297807    -0.17400
C581        C  0.76990343  0.53023659  0.98508159    -0.16500
C582        C  0.75647085  0.53358692  0.00605190     0.07500
C583        C  0.73933143  0.53217006  0.03138909     0.09400
C584        C  0.72133812  0.52649731  0.05222285    -0.17400
C585        C  0.64718676  0.40739045  0.18067572    -0.14500
C586        C  0.63141485  0.40221673  0.15594774    -0.29600
H587        H  0.65982021  0.43631626  0.19078323     0.14600
H588        H  0.61611943  0.37245000  0.14681891     0.15100
C589        C  0.39416174  0.04732816  0.15599377    -0.16500
C590        C  0.37325072  0.01142406  0.15985471     0.07500
C591        C  0.35279854  0.96876455  0.15935172     0.09400
C592        C  0.33976082  0.93357917  0.15472271    -0.17400
C593        C  0.55330383  0.09528928  0.00008165    -0.16500
C594        C  0.53782740  0.09079655  0.02170761     0.07500
C595        C  0.52329627  0.09456327  0.04666847     0.09400
C596        C  0.51201756  0.10388281  0.06618360    -0.17400
C597        C  0.54275605  0.24247687  0.17631885    -0.14500
C598        C  0.58179534  0.26854134  0.17178007    -0.29600
H599        H  0.52923807  0.24422464  0.19483889     0.14600
H600        H  0.59406492  0.26796419  0.15235566     0.15100
C601        C  0.34426163  0.92286892  0.39407525    -0.16500
C602        C  0.35767028  0.95788188  0.38873855     0.07500
C603        C  0.37776052  0.00043386  0.38796544     0.09400
C604        C  0.39800685  0.03632084  0.39187889    -0.17400
C605        C  0.54199625  0.23253505  0.37129662    -0.14500
C606        C  0.58078824  0.25927288  0.37606590    -0.29600
H607        H  0.52802243  0.23493304  0.35321097     0.14600
H608        H  0.59336931  0.25796024  0.39518784     0.15100
C609        C  0.61855190  0.06233645  0.64934604    -0.16500
C610        C  0.60509265  0.02727653  0.65462226     0.07500
C611        C  0.58471897  0.98470291  0.65581850     0.09400
C612        C  0.56403969  0.94870324  0.65246305    -0.17400
C613        C  0.77480233  0.26674525  0.48329926    -0.16500
C614        C  0.76276457  0.25080130  0.50498941     0.07500
C615        C  0.74719052  0.23538771  0.53091806     0.09400
C616        C  0.73000570  0.22244134  0.55209068    -0.17400
C617        C  0.64253729  0.25253868  0.65477839    -0.14500
C618        C  0.65772800  0.26471079  0.67960506    -0.29600
H619        H  0.62726777  0.26549664  0.64522958     0.14600
H620        H  0.67034538  0.24967999  0.69004448     0.15100
C621        C  0.56268958  0.10312463  0.54989412    -0.16500
C622        C  0.54472693  0.09427252  0.52898756     0.07500
C623        C  0.52780191  0.09243765  0.50375711     0.09400
C624        C  0.51508435  0.09787491  0.48333116    -0.17400
C625        C  0.40931483  0.35981786  0.64925391    -0.16500
C626        C  0.39001743  0.37504507  0.65254596     0.07500
C627        C  0.36975849  0.39575723  0.65190607     0.09400
C628        C  0.35491167  0.41528111  0.64765360    -0.17400
C629        C  0.52080332  0.41007775  0.55702353    -0.16500
C630        C  0.53176230  0.42896478  0.53634540     0.07500
C631        C  0.54591050  0.44690235  0.51091792     0.09400
C632        C  0.56151820  0.46043153  0.48948910    -0.17400
C633        C  0.44928379  0.23862210  0.55898494    -0.16500
C634        C  0.44458399  0.22157672  0.53773878     0.07500
C635        C  0.44377712  0.20597204  0.51183275     0.09400
C636        C  0.44707692  0.19399730  0.49016041    -0.17400
C637        C  0.54857480  0.31353567  0.67512750    -0.14500
C638        C  0.58711725  0.32740200  0.67027750    -0.29600
H639        H  0.53499112  0.29900978  0.69412616     0.14600
H640        H  0.59915096  0.33949698  0.65045345     0.15100
C641        C  0.39571537  0.34984800  0.88947217    -0.16500
C642        C  0.37643772  0.36492371  0.88542844     0.07500
C643        C  0.35753434  0.38698386  0.88558898     0.09400
C644        C  0.34474857  0.40837206  0.88982346    -0.17400
C645        C  0.55534150  0.46251419  0.04661728    -0.16500
C646        C  0.53810074  0.45107655  0.02546368     0.07500
C647        C  0.52162298  0.43329574  0.00038051     0.09400
C648        C  0.50929428  0.41321299  0.98027032    -0.17400
C649        C  0.44380415  0.20296556  0.05738951    -0.16500
C650        C  0.43937665  0.21370146  0.03554318     0.07500
C651        C  0.43868773  0.22736289  0.00920806     0.09400
C652        C  0.44226458  0.24250032  0.98731810    -0.17400
C653        C  0.54172371  0.31018695  0.86970205    -0.14500
C654        C  0.57930668  0.32184109  0.87608898    -0.29600
H655        H  0.52953124  0.29713823  0.85010903     0.14600
H656        H  0.58979846  0.33217976  0.89646050     0.15100
loop_ 
_geom_bond_atom_site_label_1 
_geom_bond_atom_site_label_2 
_geom_bond_distance 
_geom_bond_site_symmetry_2 
_ccdc_geom_bond_type 
In1           O3   2.277       .  S
In1           O4   2.247       .  S
In1          O12   2.235       .  S
In1           O6   2.258       .  S
In1           O8   2.275       .  S
In1           O9   2.247       .  S
In1          O10   2.237       .  S
In1          O13   2.230       .  S
C2            O8   1.263       .  A
C2           O10   1.256       .  A
C2          C652   1.441       .  S
O3           C11   1.262       .  A
O4           C11   1.259       .  A
C5           O12   1.259       .  A
C5            O6   1.263       .  A
C5          C641   1.438       .  S
C7            O9   1.262       .  A
C7           O13   1.258       .  A
C7          C648   1.429       .  S
C11         C653   1.483       .  S
In14         O16   2.230       .  S
In14         O17   2.253       .  S
In14         O25   2.241       .  S
In14         O19   2.254       .  S
In14         O21   2.270       .  S
In14         O22   2.241       .  S
In14         O23   2.237       .  S
In14         O26   2.276       .  S
C15          O21   1.262       .  A
C15          O23   1.256       .  A
C15         C633   1.439       .  S
O16          C24   1.257       .  A
O17          C24   1.262       .  A
C18          O25   1.260       .  A
C18          O19   1.262       .  A
C18         C625   1.439       .  S
C20          O22   1.259       .  A
C20          O26   1.262       .  A
C20         C637   1.483       .  S
C24         C629   1.431       .  S
In27         O29   2.230       .  S
In27         O30   2.241       .  S
In27         O38   2.238       .  S
In27         O32   2.261       .  S
In27         O34   2.276       .  S
In27         O35   2.235       .  S
In27         O36   2.230       .  S
In27         O39   2.288       .  S
C28          O34   1.263       .  A
C28          O36   1.255       .  A
C28         C616   1.438       .  S
O29          C37   1.258       .  A
O30          C37   1.262       .  A
C31          O38   1.259       .  A
C31          O32   1.262       .  A
C31         C609   1.438       .  S
C33          O35   1.255       .  A
C33          O39   1.263       .  A
C33         C617   1.478       .  S
C37         C621   1.427       .  S
In40         O42   2.229       .  S
In40         O43   2.249       .  S
In40         O51   2.236       .  S
In40         O45   2.252       .  S
In40         O47   2.269       .  S
In40         O48   2.243       .  S
In40         O49   2.241       .  S
In40         O52   2.275       .  S
C41          O47   1.261       .  A
C41          O49   1.256       .  A
C41         C636   1.440       .  S
O42          C50   1.257       .  A
O43          C50   1.262       .  A
C44          O51   1.260       .  A
C44          O45   1.262       .  A
C44         C604   1.437       .  S
C46          O48   1.259       .  A
C46          O52   1.262       .  A
C46         C605   1.483       .  S
C50         C624   1.428       .  S
In53         O55   2.278       .  S
In53         O56   2.249       .  S
In53         O64   2.240       .  S
In53         O58   2.258       .  S
In53         O60   2.267       .  S
In53         O61   2.257       .  S
In53         O62   2.246       .  S
In53         O65   2.234       .  S
C54          O60   1.260       .  A
C54          O62   1.257       .  A
C54         C649   1.441       .  S
O55          C63   1.262       .  A
O56          C63   1.259       .  A
C57          O64   1.259       .  A
C57          O58   1.262       .  A
C57         C589   1.439       .  S
C59          O61   1.262       .  A
C59          O65   1.256       .  A
C59         C596   1.432       .  S
C63         C597   1.485       .  S
In66         O68   2.284       .  S
In66         O69   2.235       .  S
In66         O77   2.238       .  S
In66         O71   2.260       .  S
In66         O73   2.272       .  S
In66         O74   2.245       .  S
In66         O75   2.240       .  S
In66         O78   2.236       .  S
C67          O73   1.261       .  A
C67          O75   1.256       .  A
C67         C584   1.440       .  S
O68          C76   1.263       .  A
O69          C76   1.256       .  A
C70          O77   1.259       .  A
C70          O71   1.263       .  A
C70         C577   1.439       .  S
C72          O74   1.261       .  A
C72          O78   1.257       .  A
C72         C645   1.430       .  S
C76         C586   1.476       .  S
C79          C80   1.544       .  S
C79          C85   1.539       .  S
C79          C83   1.546       .  S
C79         C575   1.487       .  S
C80          H87   1.086       .  S
C80          C81   1.372       .  D
C81          C82   1.535       .  S
C81         C598   1.488       .  S
C82          C86   1.540       .  S
C82          C84   1.534       .  S
C82          H88   1.110       .  S
C83          H89   1.086       .  S
C83          C84   1.371       .  D
C84         C571   1.488       .  S
C85          H90   1.087       .  S
C85          C86   1.365       .  D
C86         C585   1.489       .  S
C91          C92   1.541       .  S
C91          C97   1.546       .  S
C91          C95   1.545       .  S
C91         C576   1.487       .  S
C92          H99   1.086       .  S
C92          C93   1.368       .  D
C93          C94   1.534       .  S
C93         C563   1.485       .  S
C94          C98   1.535       .  S
C94          C96   1.533       .  S
C94         H100   1.112       .  S
C95         H101   1.086       .  S
C95          C96   1.371       .  D
C96         C606   1.485       .  S
C97         H102   1.086       .  S
C97          C98   1.371       .  D
C98         C568   1.488       .  S
In103       O105   2.235       .  S
In103       O106   2.248       .  S
In103       O114   2.244       .  S
In103       O108   2.261       .  S
In103       O110   2.272       .  S
In103       O111   2.248       .  S
In103       O112   2.241       .  S
In103       O115   2.276       .  S
C104        O110   1.261       .  A
C104        O112   1.256       .  A
C104        C562   1.441       .  S
O105        C113   1.257       .  A
O106        C113   1.261       .  A
C107        O114   1.259       .  A
C107        O108   1.262       .  A
C107        C555   1.440       .  S
C109        O111   1.260       .  A
C109        O115   1.263       .  A
C109        C567   1.485       .  S
C113        C632   1.430       .  S
In116       O118   2.271       .  S
In116       O119   2.253       .  S
In116       O127   2.245       .  S
In116       O121   2.260       .  S
In116       O123   2.271       .  S
In116       O124   2.250       .  S
In116       O125   2.237       .  S
In116       O128   2.237       .  S
C117        O123   1.262       .  A
C117        O125   1.257       .  A
C117        C581   1.440       .  S
O118        C126   1.262       .  A
O119        C126   1.260       .  A
C120        O127   1.260       .  A
C120        O121   1.262       .  A
C120        C546   1.440       .  S
C122        O124   1.262       .  A
C122        O128   1.258       .  A
C122        C547   1.432       .  S
C126        C551   1.484       .  S
In129       O131   2.274       .  S
In129       O132   2.251       .  S
In129       O140   2.245       .  S
In129       O134   2.254       .  S
In129       O136   2.269       .  S
In129       O137   2.251       .  S
In129       O138   2.241       .  S
In129       O141   2.237       .  S
C130        O136   1.261       .  A
C130        O138   1.256       .  A
C130        C542   1.440       .  S
O131        C139   1.262       .  A
O132        C139   1.260       .  A
C133        O140   1.260       .  A
C133        O134   1.261       .  A
C133        C538   1.438       .  S
C135        O137   1.262       .  A
C135        O141   1.258       .  A
C135        C550   1.433       .  S
C139        C572   1.485       .  S
In142       O144   2.280       .  S
In142       O145   2.236       .  S
In142       O153   2.235       .  S
In142       O147   2.261       .  S
In142       O149   2.267       .  S
In142       O150   2.245       .  S
In142       O151   2.240       .  S
In142       O154   2.240       .  S
C143        O149   1.261       .  A
C143        O151   1.257       .  A
C143        C539   1.439       .  S
O144        C152   1.264       .  A
O145        C152   1.258       .  A
C146        O153   1.259       .  A
C146        O147   1.262       .  A
C146        C527   1.438       .  S
C148        O150   1.261       .  A
C148        O154   1.257       .  A
C148        C593   1.430   1_556  S
C152        C531   1.478       .  S
C155        C156   1.542       .  S
C155        C161   1.538       .  S
C155        C159   1.537       .  S
C155        C525   1.483       .  S
C156        H163   1.086       .  S
C156        C157   1.371       .  D
C157        C158   1.538       .  S
C157        C638   1.488       .  S
C158        C162   1.543       .  S
C158        C160   1.543       .  S
C158        H164   1.108       .  S
C159        H165   1.087       .  S
C159        C160   1.366       .  D
C160        C618   1.490       .  S
C161        H166   1.087       .  S
C161        C162   1.367       .  D
C162        C522   1.490       .  S
C167        C168   1.542       .  S
C167        C173   1.541       .  S
C167        C171   1.538       .  S
C167        C526   1.483       .  S
C168        H175   1.086       .  S
C168        C169   1.371       .  D
C169        C170   1.537       .  S
C169        C552   1.489       .  S
C170        C174   1.538       .  S
C170        C172   1.541       .  S
C170        H176   1.110       .  S
C171        H177   1.087       .  S
C171        C172   1.365       .  D
C172        C532   1.488       .  S
C173        H178   1.086       .  S
C173        C174   1.371       .  D
C174        C654   1.488       .  S
In179       O181   2.242       .  S
In179       O182   2.242       .  S
In179       O190   2.232       .  S
In179       O184   2.265       .  S
In179       O186   2.268       .  S
In179       O187   2.240       .  S
In179       O188   2.239       .  S
In179       O191   2.276       .  S
C180        O186   1.262       .  A
C180        O188   1.257       .  A
C180        C559   1.441       .  S
O181        C189   1.258       .  A
O182        C189   1.261       .  A
C183        O190   1.258       .  A
C183        O184   1.263       .  A
C183        C513   1.437       .  S
C185        O187   1.258       .  A
C185        O191   1.263       .  A
C185        C521   1.478       .  S
C189        C520   1.431       .  S
In192       O194   2.234       .  S
In192       O195   2.245       .  S
In192       O203   2.242       .  S
In192       O197   2.254       .  S
In192       O199   2.272       .  S
In192       O200   2.247       .  S
In192       O201   2.239       .  S
In192       O204   2.274       .  S
C193        O199   1.261       .  A
C193        O201   1.255       .  A
C193        C613   1.439       .  S
O194        C202   1.258       .  A
O195        C202   1.262       .  A
C196        O203   1.260       .  A
C196        O197   1.261       .  A
C196        C512   1.438       .  S
C198        O200   1.258       .  A
C198        O204   1.261       .  A
C198        C564   1.480       .  S
C202        C517   1.430       .  S
In205       O207   2.241       .  S
In205       O208   2.247       .  S
In205       O216   2.238       .  S
In205       O210   2.260       .  S
In205       O212   2.268       .  S
In205       O213   2.242       .  S
In205       O214   2.241       .  S
In205       O217   2.285       .  S
C206        O212   1.261       .  A
C206        O214   1.257       .  A
C206        C497   1.440       .  S
O207        C215   1.257       .  A
O208        C215   1.261       .  A
C209        O216   1.259       .  A
C209        O210   1.262       .  A
C209        C530   1.438       .  S
C211        O213   1.257       .  A
C211        O217   1.264       .  A
C211        C505   1.480       .  S
C215        C504   1.431       .  S
In218       O220   2.233       .  S
In218       O221   2.250       .  S
In218       O229   2.240       .  S
In218       O223   2.259       .  S
In218       O225   2.272       .  S
In218       O226   2.257       .  S
In218       O227   2.245       .  S
In218       O230   2.275       .  S
C219        O225   1.261       .  A
C219        O227   1.256       .  A
C219        C489   1.441       .  S
O220        C228   1.257       .  A
O221        C228   1.262       .  A
C222        O229   1.260       .  A
C222        O223   1.263       .  A
C222        C592   1.440       .  S
C224        O226   1.259       .  A
C224        O230   1.262       .  A
C224        C493   1.485       .  S
C228        C501   1.430       .  S
In231       O233   2.239       .  S
In231       O234   2.257       .  S
In231       O242   2.242       .  S
In231       O236   2.257       .  S
In231       O238   2.267       .  S
In231       O239   2.244       .  S
In231       O240   2.242       .  S
In231       O243   2.276       .  S
C232        O238   1.261       .  A
C232        O240   1.257       .  A
C232        C480   1.439       .  S
O233        C241   1.257       .  A
O234        C241   1.262       .  A
C235        O242   1.260       .  A
C235        O236   1.262       .  A
C235        C644   1.439       .  S
C237        O239   1.260       .  A
C237        O243   1.262       .  A
C237        C485   1.483       .  S
C241        C481   1.435       .  S
In244       O246   2.239       .  S
In244       O247   2.257       .  S
In244       O255   2.240       .  S
In244       O249   2.262       .  S
In244       O251   2.270       .  S
In244       O252   2.246       .  S
In244       O253   2.238       .  S
In244       O256   2.274       .  S
C245        O251   1.261       .  A
C245        O253   1.257       .  A
C245        C500   1.439       .  S
O246        C254   1.257       .  A
O247        C254   1.262       .  A
C248        O255   1.259       .  A
C248        O249   1.262       .  A
C248        C580   1.440       .  S
C250        O252   1.260       .  A
C250        O256   1.262       .  A
C250        C474   1.483       .  S
C254        C484   1.435       .  S
In257       O259   2.271       .  S
In257       O260   2.241       .  S
In257       O268   2.238       .  S
In257       O262   2.254       .  S
In257       O264   2.270       .  S
In257       O265   2.245       .  S
In257       O266   2.236       .  S
In257       O269   2.233       .  S
C258        O264   1.262       .  A
C258        O266   1.256       .  A
C258        C464   1.440       .  S
O259        C267   1.262       .  A
O260        C267   1.260       .  A
C261        O268   1.260       .  A
C261        O262   1.263       .  A
C261        C628   1.439       .  S
C263        O265   1.262       .  A
C263        O269   1.258       .  A
C263        C469   1.430       .  S
C267        C465   1.481       .  S
In270       O272   2.236       .  S
In270       O273   2.239       .  S
In270       O281   2.234       .  S
In270       O275   2.260       .  S
In270       O277   2.274       .  S
In270       O278   2.229       .  S
In270       O279   2.233       .  S
In270       O282   2.281       .  S
C271        O277   1.263       .  A
C271        O279   1.255       .  A
C271        C477   1.439       .  S
O272        C280   1.258       .  A
O273        C280   1.261       .  A
C274        O281   1.259       .  A
C274        O275   1.263       .  A
C274        C535   1.438       .  S
C276        O278   1.256       .  A
C276        O282   1.264       .  A
C276        C454   1.475       .  S
C280        C457   1.428       .  S
In283       O285   2.272       .  S
In283       O286   2.250       .  S
In283       O294   2.238       .  S
In283       O288   2.260       .  S
In283       O290   2.270       .  S
In283       O291   2.247       .  S
In283       O292   2.239       .  S
In283       O295   2.233       .  S
C284        O290   1.262       .  A
C284        O292   1.257       .  A
C284        C445   1.440       .  S
O285        C293   1.262       .  A
O286        C293   1.260       .  A
C287        O294   1.259       .  A
C287        O288   1.263       .  A
C287        C558   1.439       .  S
C289        O291   1.262       .  A
C289        O295   1.258       .  A
C289        C472   1.430       .  S
C293        C449   1.483       .  S
C296        C297   1.539       .  S
C296        C302   1.542       .  S
C296        C300   1.537       .  S
C296        C444   1.481       .  S
C297        H304   1.087       .  S
C297        C298   1.366       .  D
C298        C299   1.541       .  S
C298        C436   1.489       .  S
C299        C303   1.537       .  S
C299        C301   1.543       .  S
C299        H305   1.108       .  S
C300        H306   1.087       .  S
C300        C301   1.366       .  D
C301        C439   1.487       .  S
C302        H307   1.086       .  S
C302        C303   1.371       .  D
C303        C450   1.488       .  S
C308        C309   1.541       .  S
C308        C314   1.537       .  S
C308        C312   1.543       .  S
C308        C443   1.481       .  S
C309        H316   1.086       .  S
C309        C310   1.370       .  D
C310        C311   1.536       .  S
C310        C473   1.486       .  S
C311        C315   1.543       .  S
C311        C313   1.537       .  S
C311        H317   1.110       .  S
C312        H318   1.086       .  S
C312        C313   1.371       .  D
C313        C494   1.490       .  S
C314        H319   1.087       .  S
C314        C315   1.365       .  D
C315        C453   1.488       .  S
In320       O322   2.277       .  S
In320       O323   2.231       .  S
In320       O331   2.235       .  S
In320       O325   2.257       .  S
In320       O327   2.269       .  S
In320       O328   2.240       .  S
In320       O329   2.231       .  S
In320       O332   2.234       .  S
C321        O327   1.263       .  A
C321        O329   1.256       .  A
C321        C430   1.437       .  S
O322        C330   1.263       .  A
O323        C330   1.256       .  A
C324        O331   1.259       .  A
C324        O325   1.263       .  A
C324        C601   1.437       .  S
C326        O328   1.261       .  A
C326        O332   1.258       .  A
C326        C431   1.428       .  S
C330        C440   1.474       .  S
In333       O335   2.275       .  S
In333       O336   2.236       .  S
In333       O344   2.235       .  S
In333       O338   2.255       .  S
In333       O340   2.269       .  S
In333       O341   2.245       .  S
In333       O342   2.239       .  S
In333       O345   2.229       .  S
C334        O340   1.262       .  A
C334        O342   1.256       .  A
C334        C448   1.439       .  S
O335        C343   1.262       .  A
O336        C343   1.258       .  A
C337        O344   1.259       .  A
C337        O338   1.262       .  A
C337        C612   1.437       .  S
C339        O341   1.262       .  A
C339        O345   1.258       .  A
C339        C434   1.428       .  S
C343        C424   1.480       .  S
In346       O348   2.279       .  S
In346       O349   2.238       .  S
In346       O357   2.231       .  S
In346       O351   2.264       .  S
In346       O353   2.274       .  S
In346       O354   2.238       .  S
In346       O355   2.238       .  S
In346       O358   2.241       .  S
C347        O353   1.262       .  A
C347        O355   1.256       .  A
C347        C461   1.441       .  S
O348        C356   1.263       .  A
O349        C356   1.257       .  A
C350        O357   1.258       .  A
C350        O351   1.263       .  A
C350        C509   1.438       .  S
C352        O354   1.261       .  A
C352        O358   1.259       .  A
C352        C419   1.431       .  S
C356        C435   1.478       .  S
In359       O361   2.270       .  S
In359       O362   2.246       .  S
In359       O370   2.239       .  S
In359       O364   2.251       .  S
In359       O366   2.262       .  S
In359       O367   2.253       .  S
In359       O368   2.241       .  S
In359       O371   2.232       .  S
C360        O366   1.261       .  A
C360        O368   1.257       .  A
C360        C427   1.437       .  S
O361        C369   1.262       .  A
O362        C369   1.260       .  A
C363        O370   1.260       .  A
C363        O364   1.262       .  A
C363        C516   1.437       .  S
C365        O367   1.263       .  A
C365        O371   1.257       .  A
C365        C422   1.431       .  S
C369        C415   1.482       .  S
In372       O374   2.228       .  S
In372       O375   2.249       .  S
In372       O383   2.240       .  S
In372       O377   2.261       .  S
In372       O379   2.271       .  S
In372       O380   2.248       .  S
In372       O381   2.239       .  S
In372       O384   2.274       .  S
C373        O379   1.262       .  A
C373        O381   1.256       .  A
C373        C492   1.440       .  S
O374        C382   1.257       .  A
O375        C382   1.262       .  A
C376        O383   1.259       .  A
C376        O377   1.263       .  A
C376        C543   1.440       .  S
C378        O380   1.259       .  A
C378        O384   1.262       .  A
C378        C412   1.483       .  S
C382        C460   1.429       .  S
C385        C386   1.542       .  S
C385        C391   1.544       .  S
C385        C389   1.543       .  S
C385        C409   1.484       .  S
C386        H393   1.086       .  S
C386        C387   1.369       .  D
C387        C388   1.533       .  S
C387        C423   1.483       .  S
C388        C392   1.532       .  S
C388        C390   1.533       .  S
C388        H394   1.112       .  S
C389        H395   1.086       .  S
C389        C390   1.369       .  D
C390        C416   1.485       .  S
C391        H396   1.085       .  S
C391        C392   1.370       .  D
C392        C466   1.484       .  S
C397        C398   1.543       .  S
C397        C403   1.540       .  S
C397        C401   1.542       .  S
C397        C410   1.484       .  S
C398        H405   1.086       .  S
C398        C399   1.370       .  D
C399        C400   1.536       .  S
C399        C486   1.486       .  S
C400        C404   1.541       .  S
C400        C402   1.536       .  S
C400        H406   1.110       .  S
C401        H407   1.086       .  S
C401        C402   1.370       .  D
C402        C411   1.487       .  S
C403        H408   1.087       .  S
C403        C404   1.367       .  D
C404        C506   1.491       .  S
C409        C410   1.215       .  T
C411        H413   1.086       .  S
C411        C412   1.346       .  D
C412        H414   1.085       .  S
C415        H417   1.086       .  S
C415        C416   1.345       .  D
C416        H418   1.087       .  S
C419        C420   1.203       .  T
C420        C421   1.408       .  S
C421        C422   1.203       .  T
C423        H425   1.087       .  S
C423        C424   1.345       .  D
C424        H426   1.086       .  S
C427        C428   1.207       .  T
C428        C429   1.415       .  S
C429        C430   1.207       .  T
C431        C432   1.201       .  T
C432        C433   1.405       .  S
C433        C434   1.201       .  T
C435        H437   1.086       .  S
C435        C436   1.344       .  D
C436        H438   1.087       .  S
C439        H441   1.087       .  S
C439        C440   1.342       .  D
C440        H442   1.086       .  S
C443        C444   1.214       .  T
C445        C446   1.209       .  T
C446        C447   1.417       .  S
C447        C448   1.209       .  T
C449        H451   1.085       .  S
C449        C450   1.346       .  D
C450        H452   1.086       .  S
C453        H455   1.087       .  S
C453        C454   1.342       .  D
C454        H456   1.086       .  S
C457        C458   1.201       .  T
C458        C459   1.406   1_554  S
C459        C460   1.202       .  T
C461        C462   1.209       .  T
C462        C463   1.418       .  S
C463        C464   1.209       .  T
C465        H467   1.085       .  S
C465        C466   1.344       .  D
C466        H468   1.087       .  S
C469        C470   1.203       .  T
C470        C471   1.407       .  S
C471        C472   1.203       .  T
C473        H475   1.087       .  S
C473        C474   1.346       .  D
C474        H476   1.086       .  S
C477        C478   1.209       .  T
C478        C479   1.417       .  S
C479        C480   1.209   1_554  T
C481        C482   1.206   1_556  T
C482        C483   1.413       .  S
C483        C484   1.206       .  T
C485        H487   1.086       .  S
C485        C486   1.346       .  D
C486        H488   1.086       .  S
C489        C490   1.210       .  T
C490        C491   1.418       .  S
C491        C492   1.209   1_554  T
C493        H495   1.085       .  S
C493        C494   1.347       .  D
C494        H496   1.086       .  S
C497        C498   1.209   1_556  T
C498        C499   1.417       .  S
C499        C500   1.209       .  T
C501        C502   1.202       .  T
C502        C503   1.407       .  S
C503        C504   1.203   1_554  T
C505        H507   1.086       .  S
C505        C506   1.345       .  D
C506        H508   1.087       .  S
C509        C510   1.207       .  T
C510        C511   1.415   1_455  S
C511        C512   1.207       .  T
C513        C514   1.207       .  T
C514        C515   1.414       .  S
C515        C516   1.207   1_655  T
C517        C518   1.203       .  T
C518        C519   1.408       .  S
C519        C520   1.203       .  T
C521        H523   1.085       .  S
C521        C522   1.345       .  D
C522        H524   1.087       .  S
C525        C526   1.215       .  T
C527        C528   1.207       .  T
C528        C529   1.415   1_545  S
C529        C530   1.208       .  T
C531        H533   1.086       .  S
C531        C532   1.343       .  D
C532        H534   1.086       .  S
C535        C536   1.207       .  T
C536        C537   1.415   1_455  S
C537        C538   1.208       .  T
C539        C540   1.209   1_556  T
C540        C541   1.417       .  S
C541        C542   1.209       .  T
C543        C544   1.208       .  T
C544        C545   1.417   1_455  S
C545        C546   1.209       .  T
C547        C548   1.204   1_556  T
C548        C549   1.410       .  S
C549        C550   1.204       .  T
C551        H553   1.085       .  S
C551        C552   1.346       .  D
C552        H554   1.087       .  S
C555        C556   1.209       .  T
C556        C557   1.417       .  S
C557        C558   1.208       .  T
C559        C560   1.209       .  T
C560        C561   1.418       .  S
C561        C562   1.209       .  T
C563        H565   1.087       .  S
C563        C564   1.346       .  D
C564        H566   1.086       .  S
C567        H569   1.086       .  S
C567        C568   1.346       .  D
C568        H570   1.087       .  S
C571        H573   1.087       .  S
C571        C572   1.346       .  D
C572        H574   1.086       .  S
C575        C576   1.217       .  T
C577        C578   1.208       .  T
C578        C579   1.416       .  S
C579        C580   1.208       .  T
C581        C582   1.209   1_556  T
C582        C583   1.418       .  S
C583        C584   1.209       .  T
C585        H587   1.087       .  S
C585        C586   1.343       .  D
C586        H588   1.086       .  S
C589        C590   1.208       .  T
C590        C591   1.416   1_545  S
C591        C592   1.208       .  T
C593        C594   1.203       .  T
C594        C595   1.408       .  S
C595        C596   1.203       .  T
C597        H599   1.086       .  S
C597        C598   1.346       .  D
C598        H600   1.086       .  S
C601        C602   1.207       .  T
C602        C603   1.414   1_565  S
C603        C604   1.207       .  T
C605        H607   1.086       .  S
C605        C606   1.345       .  D
C606        H608   1.087       .  S
C609        C610   1.207       .  T
C610        C611   1.415   1_545  S
C611        C612   1.207       .  T
C613        C614   1.208       .  T
C614        C615   1.416       .  S
C615        C616   1.208       .  T
C617        H619   1.086       .  S
C617        C618   1.343       .  D
C618        H620   1.087       .  S
C621        C622   1.201       .  T
C622        C623   1.405       .  S
C623        C624   1.201       .  T
C625        C626   1.208       .  T
C626        C627   1.416       .  S
C627        C628   1.208       .  T
C629        C630   1.203       .  T
C630        C631   1.408       .  S
C631        C632   1.203       .  T
C633        C634   1.209       .  T
C634        C635   1.417       .  S
C635        C636   1.209       .  T
C637        H639   1.085       .  S
C637        C638   1.347       .  D
C638        H640   1.086       .  S
C641        C642   1.208       .  T
C642        C643   1.416       .  S
C643        C644   1.208       .  T
C645        C646   1.202       .  T
C646        C647   1.407       .  S
C647        C648   1.202   1_554  T
C649        C650   1.209       .  T
C650        C651   1.418       .  S
C651        C652   1.209   1_554  T
C653        H655   1.085       .  S
C653        C654   1.347       .  D
C654        H656   1.087       .  S
