geometry optimzed in LAMMPS
_audit_creation_date              2020-11-30 
_audit_creation_method            'lammps2cif' 
_symmetry_space_group_name_H-M    'P1' 
_symmetry_Int_Tables_number       1 
_symmetry_cell_setting            triclinic 
loop_ 
_symmetry_equiv_pos_as_xyz 
  x,y,z 
_cell_length_a                    37.0040095 
_cell_length_b                    37.76111318067097 
_cell_length_c                    37.21679868544581 
_cell_angle_alpha                 89.96821066178452 
_cell_angle_beta                  89.45487052723611 
_cell_angle_gamma                 88.56645588167895 
loop_ 
_atom_site_label 
_atom_site_type_symbol 
_atom_site_fract_x 
_atom_site_fract_y 
_atom_site_fract_z 
_atom_site_charge 
C1          C  0.28901683  0.95703806  0.62471272    -0.02400
C2          C  0.35655064  0.82639049  0.55697858    -0.02400
C3          C  0.42066101  0.88736470  0.67904475    -0.02400
C4          C  0.91119621  0.65460403  0.31859456    -0.02400
C5          C  0.78629928  0.59051524  0.38504647    -0.02400
C6          C  0.85224227  0.70690301  0.45819038    -0.02400
C7          C  0.54305467  0.39351723  0.80807571    -0.02400
C8          C  0.66644097  0.46180557  0.88449356    -0.02400
C9          C  0.60562386  0.32610866  0.93583582    -0.02400
C10         C  0.17339253  0.08928843  0.10386019    -0.02400
C11         C  0.09735435  0.21708959  0.05371161    -0.02400
C12         C  0.04382566  0.15503721  0.18206165    -0.02400
In13       In  0.61521348  0.00929015  0.67900832     1.36900
C14         C  0.64213986  0.02245043  0.74454560     0.77700
O15         O  0.57506439  0.05381530  0.67131371    -0.60700
O16         O  0.63027707  0.06360221  0.66127482    -0.51600
C17         C  0.65771592  0.98143095  0.62667560     0.70400
O18         O  0.65418819  0.96653720  0.65689176    -0.46500
C19         C  0.55743782  0.96804015  0.67930133     0.75100
O20         O  0.66120751  0.01190793  0.71823321    -0.58400
O21         O  0.56369794  0.99045140  0.65511143    -0.48500
O22         O  0.60893807  0.02450034  0.73755055    -0.54800
C23         C  0.59830105  0.07578387  0.66154719     0.85300
O24         O  0.63975406  0.00999312  0.62399064    -0.56700
O25         O  0.58212705  0.96545067  0.70231440    -0.60000
In26       In  0.53383216  0.28482347  0.60312149     1.36900
C27         C  0.46533881  0.27609114  0.58179359     0.77700
O28         O  0.52653530  0.22580436  0.59886812    -0.60700
O29         O  0.57048357  0.24390501  0.62868298    -0.51600
C30         C  0.58242622  0.30966600  0.55552634     0.70400
O31         O  0.56083627  0.32975931  0.57291684    -0.46500
C32         C  0.53759783  0.32105281  0.66524642     0.75100
O33         O  0.49008161  0.28604682  0.56078211    -0.58400
O34         O  0.55553366  0.29322304  0.65816882    -0.48500
O35         O  0.47531915  0.27375427  0.61405735    -0.54800
C36         C  0.55329611  0.21755408  0.61798690     0.85300
O37         O  0.57693752  0.27744999  0.56088080    -0.56700
O38         O  0.51778512  0.33162306  0.63970897    -0.60000
In39       In  0.36738490  0.08641560  0.23061729     1.36900
C40         C  0.38711334  0.01820430  0.24187572     0.77700
O41         O  0.32858562  0.10922195  0.27144448    -0.60700
O42         O  0.37776494  0.08684229  0.29046192    -0.51600
C43         C  0.41293369  0.13661171  0.20642114     0.70400
O44         O  0.40412333  0.11042279  0.18779277    -0.46500
C45         C  0.31001190  0.08874286  0.18741185     0.75100
O46         O  0.40952388  0.04152658  0.23343951    -0.58400
O47         O  0.31189486  0.10605522  0.21616930    -0.48500
O48         O  0.35482095  0.02949832  0.24205081    -0.54800
C49         C  0.34801236  0.10221172  0.29826755     0.85300
O50         O  0.39935509  0.13628313  0.23751324    -0.56700
O51         O  0.33865936  0.07162354  0.17921750    -0.60000
In52       In  0.28918499  0.15754103  0.51249835     1.36900
C53         C  0.22113494  0.17967062  0.49787255     0.77700
O54         O  0.29921873  0.16876695  0.45398768    -0.60700
O55         O  0.31184466  0.11746426  0.47309642    -0.51600
C56         C  0.33552290  0.20563050  0.53741152     0.70400
O57         O  0.30942988  0.19440954  0.55599513    -0.46500
C58         C  0.29018415  0.10093059  0.55660886     0.75100
O59         O  0.24229927  0.19779820  0.51644929    -0.58400
O60         O  0.31859308  0.11468643  0.54479494    -0.48500
O61         O  0.23446431  0.14992629  0.48911393    -0.54800
C62         C  0.31048280  0.13787707  0.44634016     0.85300
O63         O  0.33639980  0.19350140  0.50590398    -0.56700
O64         O  0.26162757  0.11734191  0.54753556    -0.60000
In65       In  0.73582709  0.90614629  0.42656621     1.36900
C66         C  0.72427180  0.93235492  0.49327647     0.77700
O67         O  0.67639645  0.91661572  0.42671350    -0.60700
O68         O  0.69758395  0.87632558  0.39250755    -0.51600
C69         C  0.76196312  0.94844438  0.37471094     0.70400
O70         O  0.77691889  0.94435138  0.40484274    -0.46500
C71         C  0.77592565  0.84636094  0.43264382     0.75100
O72         O  0.72744747  0.89979339  0.48647729    -0.58400
O73         O  0.74202372  0.84777675  0.43512283    -0.48500
O74         O  0.72945620  0.95148337  0.46606810    -0.54800
C75         C  0.66978024  0.89262017  0.40442512     0.85300
O76         O  0.73352278  0.93113473  0.37167139    -0.56700
O77         O  0.78979120  0.87590791  0.42615729    -0.60000
In78       In  0.46007782  0.83149549  0.34797137     1.36900
C79         C  0.47344906  0.76415738  0.32782168     0.77700
O80         O  0.51931518  0.83138498  0.33507179    -0.60700
O81         O  0.49960825  0.86286285  0.37831902    -0.51600
C82         C  0.43100652  0.88367981  0.30663794     0.70400
O83         O  0.41231955  0.86328545  0.32557022    -0.46500
C84         C  0.42306127  0.82959085  0.41009085     0.75100
O85         O  0.45732807  0.78631288  0.30772946    -0.58400
O86         O  0.45299771  0.84433478  0.40594649    -0.48500
O87         O  0.47993938  0.77626414  0.35848259    -0.54800
C88         C  0.52682420  0.85197155  0.36038317     0.85300
O89         O  0.46409445  0.87528245  0.30659276    -0.56700
O90         O  0.41175519  0.81534129  0.38177145    -0.60000
In91       In  0.96607948  0.73207583  0.65457767     1.36900
C92         C  0.97568088  0.79874758  0.67822099     0.77700
O93         O  0.02336851  0.71808349  0.67023876    -0.60700
O94         O  0.00593996  0.70640818  0.61774913    -0.51600
C95         C  0.93818205  0.67858626  0.69228592     0.70400
O96         O  0.92444319  0.70963329  0.69341667    -0.46500
C97         C  0.92621962  0.73380029  0.59567302     0.75100
O98         O  0.97285652  0.77270530  0.69919369    -0.58400
O99         O  0.95896276  0.74190011  0.59579512    -0.48500
O100        O  0.97155462  0.79063606  0.64583558    -0.54800
C101        C  0.03108688  0.70434827  0.64008975     0.85300
O102        O  0.96601631  0.67579671  0.67278926    -0.56700
O103        O  0.91316942  0.72692781  0.62634350    -0.60000
In104      In  0.23690314  0.63594872  0.56951169     1.36900
C105        C  0.22197837  0.61231480  0.50357763     0.77700
O106        O  0.17742727  0.63052098  0.57447240    -0.60700
O107        O  0.20272248  0.66598624  0.60955254    -0.51600
C108        C  0.26430917  0.59328007  0.62090177     0.70400
O109        O  0.28236909  0.61748204  0.60647798    -0.46500
C110        C  0.27281577  0.69522795  0.55726066     0.75100
O111        O  0.24001664  0.59384023  0.52574932    -0.58400
O112        O  0.24249160  0.69446075  0.57274271    -0.48500
O113        O  0.21389975  0.64277781  0.51491865    -0.54800
C114        C  0.17358012  0.65285275  0.59944394     0.85300
O115        O  0.23410899  0.58920962  0.60660970    -0.56700
O116        O  0.28550574  0.66494621  0.54849189    -0.60000
In117      In  0.03740303  0.26015920  0.38848843     1.36900
C118        C  0.97008828  0.27217870  0.41407015     0.77700
O119        O  0.06938682  0.30144074  0.36142066    -0.60700
O120        O  0.03684689  0.31685873  0.40612842    -0.51600
C121        C  0.08930308  0.22927234  0.42871026     0.70400
O122        O  0.06288482  0.21240104  0.41703594    -0.46500
C123        C  0.03970774  0.22879519  0.32357745     0.75100
O124        O  0.99502445  0.25852831  0.43273880    -0.58400
O125        O  0.04608815  0.26081448  0.32888927    -0.48500
O126        O  0.97874050  0.27600138  0.38150863    -0.54800
C127        C  0.05794585  0.32637945  0.38138926     0.85300
O128        O  0.08823823  0.26156077  0.42060802    -0.56700
O129        O  0.03045294  0.21268114  0.35188429    -0.60000
In130      In  0.11235067  0.53370758  0.32223726     1.36900
C131        C  0.13659198  0.52504854  0.25429439     0.77700
O132        O  0.08250311  0.49553006  0.35699666    -0.60700
O133        O  0.11837335  0.47548223  0.31690999    -0.51600
C134        C  0.15575836  0.55627391  0.37504964     0.70400
O135        O  0.15173860  0.52427127  0.36753441    -0.46500
C136        C  0.05190756  0.57362658  0.32015940     0.75100
O137        O  0.15738038  0.53099302  0.28023884    -0.58400
O138        O  0.05265307  0.54191148  0.33075873    -0.48500
O139        O  0.10377750  0.52636319  0.26317267    -0.54800
C140        C  0.09694189  0.46852432  0.34222451     0.85300
O141        O  0.13897411  0.57694651  0.35402166    -0.56700
O142        O  0.08239863  0.58496613  0.31084702    -0.60000
In143      In  0.86070542  0.47957474  0.75704947     1.36900
C144        C  0.88720803  0.54504523  0.74884943     0.77700
O145        O  0.86143896  0.48564313  0.69735460    -0.60700
O146        O  0.83651638  0.44092852  0.71987710    -0.51600
C147        C  0.90660674  0.42862216  0.78160965     0.70400
O148        O  0.89555851  0.45444668  0.80061967    -0.46500
C149        C  0.79921650  0.47740120  0.79517957     0.75100
O150        O  0.90641653  0.51708636  0.74920654    -0.58400
O151        O  0.79987029  0.47983334  0.76149736    -0.48500
O152        O  0.85429958  0.53964232  0.75533884    -0.54800
C153        C  0.84511468  0.45735620  0.69167744     0.85300
O154        O  0.89586950  0.43046523  0.74968984    -0.56700
O155        O  0.82998095  0.47769442  0.80951230    -0.60000
In156      In  0.78234112  0.38563953  0.48735790     1.36900
C157        C  0.71473162  0.36169399  0.49354332     0.77700
O158        O  0.77831217  0.38308190  0.54741702    -0.60700
O159        O  0.81904133  0.41419597  0.52419113    -0.51600
C160        C  0.83532169  0.34113762  0.46212116     0.70400
O161        O  0.80932442  0.35185918  0.44279553    -0.46500
C162        C  0.77956316  0.44802174  0.45317080     0.75100
O163        O  0.74243377  0.34298495  0.50069313    -0.58400
O164        O  0.76917433  0.44393665  0.48514858    -0.48500
O165        O  0.72182227  0.39103520  0.47965310    -0.54800
C166        C  0.80419907  0.40339413  0.55266379     0.85300
O167        O  0.83251469  0.35172258  0.49407065    -0.56700
O168        O  0.79129980  0.41987554  0.43823803    -0.60000
In169      In  0.15466095  0.88084850  0.01416243     1.36900
C170        C  0.22170459  0.85864591  0.99703728     0.77700
O171        O  0.14983920  0.87385093  0.95493413    -0.60700
O172        O  0.11505510  0.91138567  0.98165550    -0.51600
C173        C  0.10656932  0.83637660  0.04198144     0.70400
O174        O  0.11348479  0.83889974  0.00909478    -0.46500
C175        C  0.16173730  0.94258998  0.04843470     0.75100
O176        O  0.20140081  0.84098252  0.01739112    -0.58400
O177        O  0.14191627  0.93818658  0.02169393    -0.48500
O178        O  0.20773966  0.88744031  0.98662658    -0.54800
C179        C  0.12587183  0.89808300  0.95230291     0.85300
O180        O  0.12606958  0.85548852  0.06128997    -0.56700
O181        O  0.17688380  0.91437950  0.05958178    -0.60000
In182      In  0.09070831  0.97506758  0.74510965     1.36900
C183        C  0.07246492  0.04401571  0.75152089     0.77700
O184        O  0.07867443  0.97577802  0.80371037    -0.60700
O185        O  0.11325459  0.93454558  0.78322006    -0.51600
C186        C  0.04310252  0.92904209  0.71916154     0.70400
O187        O  0.04826600  0.93439719  0.75201321    -0.46500
C188        C  0.15284231  0.97094161  0.70860990     0.75100
O189        O  0.05089303  0.02128492  0.74032024    -0.58400
O190        O  0.15155362  0.97527289  0.74213139    -0.48500
O191        O  0.10368873  0.03152817  0.75703707    -0.54800
C192        C  0.09726685  0.94811133  0.81017451     0.85300
O193        O  0.06108142  0.94911092  0.69900626    -0.56700
O194        O  0.12242222  0.96839459  0.69398223    -0.60000
In195      In  0.98902679  0.22901799  0.85030189     1.36900
C196        C  0.97605054  0.29643365  0.82838862     0.77700
O197        O  0.92989652  0.22259958  0.83645856    -0.60700
O198        O  0.95294815  0.19056132  0.87704346    -0.51600
C199        C  0.02435449  0.17998405  0.80916047     0.70400
O200        O  0.99193521  0.18970851  0.80452795    -0.46500
C201        C  0.02112911  0.23079845  0.91455726     0.75100
O202        O  0.99569783  0.27475064  0.81074966    -0.58400
O203        O  0.98919695  0.22110851  0.91019421    -0.48500
O204        O  0.96568384  0.28424184  0.85809241    -0.54800
C205        C  0.92488663  0.19899806  0.85992734     0.85300
O206        O  0.03968139  0.19777420  0.83288361    -0.56700
O207        O  0.03654735  0.24059682  0.88590212    -0.60000
In208      In  0.72027382  0.12741201  0.92779613     1.36900
C209        C  0.73603937  0.10500908  0.99503189     0.77700
O210        O  0.78079862  0.12865819  0.92762805    -0.60700
O211        O  0.75316120  0.15624448  0.88632230    -0.51600
C212        C  0.69285166  0.08316678  0.87834556     0.70400
O213        O  0.72609198  0.08701752  0.88345039    -0.46500
C214        C  0.67933530  0.18598370  0.93418433     0.75100
O215        O  0.73001306  0.08438676  0.96923100    -0.58400
O216        O  0.71086193  0.18504144  0.92120125    -0.48500
O217        O  0.73151973  0.13708775  0.98672095    -0.54800
C218        C  0.78317773  0.14835346  0.90034680     0.85300
O219        O  0.67329243  0.10013254  0.90062822    -0.56700
O220        O  0.66773509  0.15605275  0.94317461    -0.60000
In221      In  0.84506526  0.03876647  0.18469520     1.36900
C222        C  0.81574352  0.02508969  0.24949839     0.77700
O223        O  0.82943305  0.98239547  0.18615232    -0.60700
O224        O  0.87413018  0.99605875  0.15326523    -0.51600
C225        C  0.80538023  0.06465087  0.12972117     0.70400
O226        O  0.80746666  0.08085392  0.15933084    -0.46500
C227        C  0.90741334  0.07367750  0.18982608     0.75100
O228        O  0.79753181  0.03591637  0.22304210    -0.58400
O229        O  0.90535690  0.04058733  0.18829560    -0.48500
O230        O  0.84935858  0.02619149  0.24400576    -0.54800
C231        C  0.85436326  0.97189358  0.16532687     0.85300
O232        O  0.82383147  0.03626659  0.12879859    -0.56700
O233        O  0.87680951  0.08936049  0.18962362    -0.60000
In234      In  0.90815079  0.76168523  0.11595500     1.36900
C235        C  0.97636016  0.77317951  0.09620989     0.77700
O236        O  0.90846910  0.81869891  0.10165403    -0.60700
O237        O  0.87448491  0.80195841  0.14457205    -0.51600
C238        C  0.85721342  0.73530791  0.07340197     0.70400
O239        O  0.85571031  0.76597953  0.08637101    -0.46500
C240        C  0.91147400  0.72710074  0.17807352     0.75100
O241        O  0.95250024  0.76469543  0.07394315    -0.58400
O242        O  0.90231719  0.75917741  0.17527046    -0.48500
O243        O  0.96560962  0.77266289  0.12823812    -0.54800
C244        C  0.88619717  0.82739970  0.12613952     0.85300
O245        O  0.88561280  0.71806404  0.08157767    -0.56700
O246        O  0.91745610  0.71171343  0.14835338    -0.60000
In247      In  0.66272700  0.66386264  0.98610529     1.36900
C248        C  0.72946886  0.68683015  0.00013962     0.77700
O249        O  0.65322930  0.67469726  0.04409719    -0.60700
O250        O  0.64454052  0.62256176  0.02509178    -0.51600
C251        C  0.60867075  0.70789374  0.96529418     0.70400
O252        O  0.63058402  0.69319218  0.94344239    -0.46500
C253        C  0.66263108  0.60826324  0.94211301     0.75100
O254        O  0.70719362  0.70438612  0.98126149    -0.58400
O255        O  0.63907583  0.61366718  0.96624692    -0.48500
O256        O  0.71849877  0.65662945  0.00852547    -0.54800
C257        C  0.64467706  0.64346349  0.05152367     0.85300
O258        O  0.61636494  0.70190244  0.99747996    -0.56700
O259        O  0.68600002  0.63200558  0.93946264    -0.60000
In260      In  0.58996983  0.58002778  0.26158315     1.36900
C261        C  0.57459199  0.51145787  0.25090164     0.77700
O262        O  0.57685563  0.58365475  0.20347518    -0.60700
O263        O  0.62731176  0.60233815  0.22024404    -0.51600
C264        C  0.54332097  0.63040667  0.28661407     0.70400
O265        O  0.55762249  0.60703570  0.30647283    -0.46500
C266        C  0.64796545  0.58333674  0.30305255     0.75100
O267        O  0.55101460  0.53402015  0.26164217    -0.58400
O268        O  0.64129780  0.60518606  0.27819043    -0.48500
O269        O  0.60559093  0.52399602  0.24811178    -0.54800
C270        C  0.60607322  0.59764971  0.19444869     0.85300
O271        O  0.55086595  0.62604883  0.25392777    -0.56700
O272        O  0.62397135  0.56057708  0.30766059    -0.60000
In273      In  0.50111059  0.33123244  0.14372391     1.36900
C274        C  0.48804482  0.26412699  0.16446815     0.77700
O275        O  0.44146148  0.33294200  0.15536492    -0.60700
O276        O  0.46162096  0.36558702  0.11399922    -0.51600
C277        C  0.52842147  0.38018609  0.18811915     0.70400
O278        O  0.49658271  0.38031881  0.17702023    -0.46500
C279        C  0.53760180  0.33051910  0.08157572     0.75100
O280        O  0.49711060  0.28807499  0.18593049    -0.58400
O281        O  0.50519240  0.34078595  0.08492331    -0.48500
O282        O  0.48866659  0.27405203  0.13218024    -0.54800
C283        C  0.43420957  0.35508590  0.13083098     0.85300
O284        O  0.54731977  0.35413099  0.17681157    -0.56700
O285        O  0.55209141  0.32071021  0.11064174    -0.60000
In286      In  0.21825351  0.40974790  0.07645486     1.36900
C287        C  0.23240787  0.43232724  0.00903682     0.77700
O288        O  0.27805899  0.41518557  0.07389641    -0.60700
O289        O  0.25724975  0.37880637  0.11133527    -0.51600
C290        C  0.19268921  0.45756380  0.12489432     0.70400
O291        O  0.22532563  0.44939843  0.12001992    -0.46500
C292        C  0.17608207  0.35256111  0.07393672     0.75100
O293        O  0.21913953  0.45204011  0.03341271    -0.58400
O294        O  0.20275455  0.35441745  0.09460987    -0.48500
O295        O  0.23590031  0.40039837  0.01874530    -0.54800
C296        C  0.28496621  0.39282299  0.09815375     0.85300
O297        O  0.17224757  0.44220096  0.10326085    -0.56700
O298        O  0.17083439  0.38039218  0.05584082    -0.60000
In299      In  0.40778537  0.78316639  0.88538777     1.36900
C300        C  0.47554444  0.77257310  0.91070582     0.77700
O301        O  0.40902495  0.72604182  0.89935718    -0.60700
O302        O  0.37732157  0.74280389  0.85526688    -0.51600
C303        C  0.35310379  0.80671410  0.92767470     0.70400
O304        O  0.35374235  0.77783157  0.91116535    -0.46500
C305        C  0.40838215  0.81873776  0.82303347     0.75100
O306        O  0.44844704  0.77865986  0.93079525    -0.58400
O307        O  0.41017431  0.78551195  0.82552908    -0.48500
O308        O  0.46817174  0.77521002  0.87790403    -0.54800
C309        C  0.38825508  0.71725862  0.87451018     0.85300
O310        O  0.38099992  0.82476966  0.92221837    -0.56700
O311        O  0.40647262  0.83426260  0.85308086    -0.60000
In312      In  0.33705169  0.50830950  0.81943151     1.36900
C313        C  0.31638274  0.52463463  0.75180056     0.77700
O314        O  0.36869913  0.54910651  0.84774663    -0.60700
O315        O  0.32017871  0.56560169  0.82224413    -0.51600
C316        C  0.29578459  0.48007680  0.87287420     0.70400
O317        O  0.30345831  0.51217847  0.87036904    -0.46500
C318        C  0.40036877  0.47169005  0.81520154     0.75100
O319        O  0.34812362  0.52693865  0.76301363    -0.58400
O320        O  0.39541593  0.49951509  0.83331674    -0.48500
O321        O  0.29526249  0.51107100  0.77465964    -0.54800
C322        C  0.34754351  0.57458199  0.83960300     0.85300
O323        O  0.30727107  0.46211494  0.84632773    -0.56700
O324        O  0.37202990  0.46131532  0.80010548    -0.60000
C325        C  0.35050957  0.67545267  0.84202187    -0.05600
C326        C  0.37709175  0.68043912  0.86807288     0.00300
C327        C  0.39240705  0.65057708  0.88606849    -0.08300
C328        C  0.38080953  0.61676034  0.87651061    -0.05700
C329        C  0.35506984  0.61168321  0.84957772     0.00300
C330        C  0.33934745  0.64166276  0.83200894    -0.08200
C331        C  0.31161548  0.63869635  0.80228117     0.62200
H332        H  0.33866486  0.69852718  0.82899428     0.12900
H333        H  0.39241213  0.59369565  0.88977633     0.12900
C334        C  0.42157700  0.65379892  0.91438346     0.62400
F335        F  0.30254949  0.67135723  0.78744321    -0.22800
F336        F  0.28029142  0.62449053  0.81600144    -0.20100
F337        F  0.32532235  0.61747215  0.77484185    -0.19800
F338        F  0.40869327  0.67406997  0.94293063    -0.19800
F339        F  0.45168135  0.66927019  0.89933653    -0.20100
F340        F  0.43244324  0.62118575  0.92804321    -0.22800
C341        C  0.26192636  0.42021000  0.94957572    -0.05600
C342        C  0.24504875  0.44514850  0.97281158     0.00300
C343        C  0.24351132  0.48127803  0.96185310    -0.08300
C344        C  0.25827991  0.49059080  0.92804994    -0.05700
C345        C  0.27629676  0.46585290  0.90537969     0.00300
C346        C  0.27843884  0.42988633  0.91668153    -0.08200
C347        C  0.29959004  0.40190103  0.89539197     0.62200
H348        H  0.26338579  0.39280729  0.95809334     0.12900
H349        H  0.25706318  0.51802139  0.91960014     0.12900
C350        C  0.22781711  0.51042412  0.98598795     0.62400
F351        F  0.30085247  0.36953688  0.91293548    -0.22800
F352        F  0.33483311  0.41240277  0.89038603    -0.20100
F353        F  0.28352231  0.39706157  0.86243924    -0.19800
F354        F  0.24773496  0.51220300  0.01720086    -0.19800
F355        F  0.19214252  0.50365747  0.99433020    -0.20100
F356        F  0.22865954  0.54338820  0.96975614    -0.22800
C357        C  0.35033698  0.39506731  0.08548881    -0.05600
C358        C  0.32278301  0.38385603  0.10878129     0.00300
C359        C  0.33229606  0.36448872  0.14016970    -0.08300
C360        C  0.36911493  0.35701830  0.14666967    -0.05700
C361        C  0.39654739  0.36704513  0.12261016     0.00300
C362        C  0.38695756  0.38634138  0.09113539    -0.08200
C363        C  0.41446426  0.39649813  0.06249044     0.62200
H364        H  0.34280034  0.40991967  0.06172175     0.12900
H365        H  0.37673875  0.34242215  0.17057269     0.12900
C366        C  0.30422513  0.35154872  0.16686032     0.62400
F367        F  0.39840341  0.41319232  0.03335922    -0.22800
F368        F  0.43230742  0.36635086  0.04974607    -0.20100
F369        F  0.43906245  0.41952097  0.07668335    -0.19800
F370        F  0.28202257  0.32770453  0.15032166    -0.19800
F371        F  0.28377929  0.37998807  0.17986367    -0.20100
F372        F  0.31990934  0.33444280  0.19594548    -0.22800
C373        C  0.53123975  0.46197627  0.24782232    -0.05600
C374        C  0.56614003  0.47417363  0.24041692     0.00300
C375        C  0.59093027  0.45126075  0.22130944    -0.08300
C376        C  0.57814072  0.41960746  0.20628874    -0.05700
C377        C  0.54217439  0.40952106  0.21067641     0.00300
C378        C  0.51921024  0.42950538  0.23421879    -0.08200
C379        C  0.48257949  0.41603505  0.24597484     0.62200
H380        H  0.51291442  0.47845757  0.26380296     0.12900
H381        H  0.59580452  0.40323166  0.18951346     0.12900
C382        C  0.63057202  0.45988204  0.21604687     0.62400
F383        F  0.46886254  0.43459980  0.27532451    -0.22800
F384        F  0.48597873  0.38072350  0.25575158    -0.20100
F385        F  0.45799211  0.41956312  0.21840141    -0.19800
F386        F  0.64639036  0.46459356  0.24918235    -0.19800
F387        F  0.63380686  0.49021428  0.19553821    -0.20100
F388        F  0.64969607  0.43290394  0.19859365    -0.22800
C389        C  0.51467194  0.75313406  0.96165033    -0.05600
C390        C  0.51184477  0.76066748  0.92468661     0.00300
C391        C  0.54278269  0.75427628  0.90230971    -0.08300
C392        C  0.57394318  0.73819806  0.91726022    -0.05700
C393        C  0.57604109  0.72892032  0.95367293     0.00300
C394        C  0.54630476  0.73788087  0.97679133    -0.08200
C395        C  0.54740648  0.73138168  0.01716017     0.62200
H396        H  0.49135513  0.75856726  0.97873057     0.12900
H397        H  0.59699245  0.73192573  0.90009238     0.12900
C398        C  0.54346394  0.76368753  0.86263890     0.62400
F399        F  0.51593485  0.74302087  0.03430228    -0.22800
F400        F  0.57570778  0.74958284  0.03183993    -0.20100
F401        F  0.55181607  0.69555356  0.02419163    -0.19800
F402        F  0.53281398  0.79875718  0.85810140    -0.19800
F403        F  0.52062651  0.74195430  0.84407537    -0.20100
F404        F  0.57774658  0.75945759  0.84772181    -0.22800
C405        C  0.64568396  0.62917614  0.15219280    -0.05600
C406        C  0.61494985  0.60847741  0.15712186     0.00300
C407        C  0.59369540  0.59976408  0.12683593    -0.08300
C408        C  0.60520065  0.61089967  0.09264883    -0.05700
C409        C  0.63531351  0.63222100  0.08816981     0.00300
C410        C  0.65564404  0.64221550  0.11833854    -0.08200
C411        C  0.68731963  0.66696160  0.11507585     0.62200
H412        H  0.66133773  0.63624751  0.17542657     0.12900
H413        H  0.58994987  0.60410518  0.06903043     0.12900
C414        C  0.55870636  0.57965520  0.13012331     0.62400
F415        F  0.70584152  0.66976147  0.14704825    -0.22800
F416        F  0.67465082  0.70046820  0.10578530    -0.20100
F417        F  0.71155639  0.65469808  0.08914310    -0.19800
F418        F  0.54293829  0.57419507  0.09706533    -0.19800
F419        F  0.53407230  0.59889954  0.15098067    -0.20100
F420        F  0.56536365  0.54681085  0.14552217    -0.22800
C421        C  0.78841042  0.67518223  0.02987269    -0.05600
C422        C  0.76461152  0.70016200  0.01384111     0.00300
C423        C  0.77340673  0.73660895  0.01509000    -0.08300
C424        C  0.80445751  0.74649067  0.03399607    -0.05700
C425        C  0.82735739  0.72155372  0.05110956     0.00300
C426        C  0.81961503  0.68510659  0.04844463    -0.08200
C427        C  0.84320559  0.65678419  0.06628411     0.62200
H428        H  0.78184710  0.64744209  0.02855490     0.12900
H429        H  0.81096358  0.77422088  0.03591578     0.12900
C430        C  0.75037122  0.76525774  0.99705468     0.62400
F431        F  0.82980159  0.62321544  0.06175709    -0.22800
F432        F  0.84502601  0.66325966  0.10282151    -0.20100
F433        F  0.87759170  0.65686422  0.05138195    -0.19800
F434        F  0.71572964  0.76581945  0.01135404    -0.19800
F435        F  0.74915256  0.75872800  0.96053024    -0.20100
F436        F  0.76421881  0.79867245  0.00172977    -0.22800
C437        C  0.87206245  0.92702090  0.12041431    -0.05600
C438        C  0.85985719  0.93447071  0.15542405     0.00300
C439        C  0.85343451  0.90636513  0.17978209    -0.08300
C440        C  0.86275615  0.87181813  0.16894054    -0.05700
C441        C  0.87570152  0.86439685  0.13414143     0.00300
C442        C  0.87845957  0.89213472  0.10869061    -0.08200
C443        C  0.88595684  0.88516931  0.06907416     0.62200
H444        H  0.87569754  0.94883946  0.10190994     0.12900
H445        H  0.85974447  0.85014390  0.18771669     0.12900
C446        C  0.83640710  0.91229874  0.21673144     0.62400
F447        F  0.87909055  0.91506616  0.04843580    -0.22800
F448        F  0.86375386  0.85883171  0.05693222    -0.20100
F449        F  0.92174001  0.87491076  0.06382957    -0.19800
F450        F  0.80101455  0.92419102  0.21274439    -0.19800
F451        F  0.85546859  0.93695316  0.23583263    -0.20100
F452        F  0.83591036  0.88144198  0.23684897    -0.22800
C453        C  0.77448079  0.04990449  0.07325613    -0.05600
C454        C  0.78341108  0.07633192  0.09801480     0.00300
C455        C  0.77323041  0.11199643  0.09035305    -0.08300
C456        C  0.75635371  0.11984236  0.05716751    -0.05700
C457        C  0.74943723  0.09346693  0.03134683     0.00300
C458        C  0.75800218  0.05759376  0.04010096    -0.08200
C459        C  0.75143401  0.02726339  0.01432646     0.62200
H460        H  0.78165891  0.02268956  0.07970169     0.12900
H461        H  0.74943514  0.14711273  0.05069063     0.12900
C462        C  0.78114867  0.14178917  0.11630677     0.62400
F463        F  0.75975912  0.99458298  0.02941387    -0.22800
F464        F  0.77294276  0.03090852  0.98400646    -0.20100
F465        F  0.71539657  0.02719203  0.00478045    -0.19800
F466        F  0.81798635  0.14311633  0.12200001    -0.19800
F467        F  0.76351671  0.13612808  0.14865947    -0.20100
F468        F  0.76956059  0.17448434  0.10336108    -0.22800
C469        C  0.85777622  0.20356065  0.85777667    -0.05600
C470        C  0.88882483  0.18388114  0.86799032     0.00300
C471        C  0.88454145  0.15174249  0.88737427    -0.08300
C472        C  0.84943823  0.14086613  0.89591557    -0.05700
C473        C  0.81853754  0.16100978  0.88675818     0.00300
C474        C  0.82263132  0.19320182  0.86754068    -0.08200
C475        C  0.79049514  0.21757004  0.85903029     0.62200
H476        H  0.86130772  0.22806953  0.84320301     0.12900
H477        H  0.84583844  0.11650607  0.91071610     0.12900
C478        C  0.91650462  0.12861766  0.89925145     0.62400
F479        F  0.80110285  0.24944784  0.84444879    -0.22800
F480        F  0.77110634  0.22517018  0.89017507    -0.20100
F481        F  0.76835662  0.20145210  0.83453159    -0.19800
F482        F  0.93631936  0.14625544  0.92464777    -0.19800
F483        F  0.93820195  0.12012169  0.86987020    -0.20100
F484        F  0.90565806  0.09722777  0.91473478    -0.22800
C485        C  0.01973703  0.13165177  0.76436279    -0.05600
C486        C  0.04111949  0.14860912  0.78998407     0.00300
C487        C  0.07532705  0.13290052  0.79877305    -0.08300
C488        C  0.08524089  0.09988275  0.78340269    -0.05700
C489        C  0.06213659  0.08146336  0.76057945     0.00300
C490        C  0.02939703  0.09830820  0.74966727    -0.08200
C491        C  0.00401041  0.08108024  0.72346376     0.62200
H492        H  0.99404868  0.14389413  0.75719416     0.12900
H493        H  0.11057134  0.08713319  0.79093801     0.12900
C494        C  0.10092881  0.14955869  0.82527727     0.62400
F495        F  0.97728671  0.10457992  0.71185186    -0.22800
F496        F  0.98735977  0.05291834  0.73997721    -0.20100
F497        F  0.02309407  0.06921681  0.69347271    -0.19800
F498        F  0.08507437  0.15092702  0.85906081    -0.19800
F499        F  0.10913558  0.18336087  0.81406141    -0.20100
F500        F  0.13318918  0.13037043  0.82818289    -0.22800
C501        C  0.02439089  0.77746219  0.04997757    -0.05600
C502        C  0.01290369  0.78495536  0.08522578     0.00300
C503        C  0.03520385  0.80556079  0.10765948    -0.08300
C504        C  0.06624069  0.82061784  0.09254589    -0.05700
C505        C  0.07647992  0.81498231  0.05655690     0.00300
C506        C  0.05631301  0.79121847  0.03539303    -0.08200
C507        C  0.06844078  0.77924178  0.99807381     0.62200
H508        H  0.00771848  0.76090102  0.03354747     0.12900
H509        H  0.08226138  0.83803862  0.10867416     0.12900
C510        C  0.02628146  0.81284841  0.14702192     0.62400
F511        F  0.04758591  0.75211357  0.98526985    -0.22800
F512        F  0.10384316  0.76667768  0.99936022    -0.20100
F513        F  0.06568221  0.80698046  0.97391561    -0.19800
F514        F  0.02351445  0.78117736  0.16541830    -0.19800
F515        F  0.99411951  0.83216430  0.14990764    -0.20100
F516        F  0.05281634  0.83202162  0.16363896    -0.22800
C517        C  0.10850084  0.88637835  0.88994323    -0.05600
C518        C  0.11332186  0.91117101  0.91736714     0.00300
C519        C  0.10990208  0.94791882  0.90996307    -0.08300
C520        C  0.10328689  0.95856932  0.87457881    -0.05700
C521        C  0.10067020  0.93387852  0.84674463     0.00300
C522        C  0.10151266  0.89714045  0.85452979    -0.08200
C523        C  0.09374230  0.86953672  0.82616765     0.62200
H524        H  0.11083591  0.85846364  0.89642857     0.12900
H525        H  0.10170544  0.98650361  0.86803238     0.12900
C526        C  0.11610426  0.97587066  0.93845279     0.62400
F527        F  0.09032394  0.83613448  0.84101689    -0.22800
F528        F  0.12148979  0.86784338  0.80107543    -0.20100
F529        F  0.06163631  0.87831224  0.80923726    -0.19800
F530        F  0.15011457  0.97053755  0.95279245    -0.19800
F531        F  0.09012450  0.97378722  0.96529124    -0.20100
F532        F  0.11432904  0.00987798  0.92458063    -0.22800
C533        C  0.26353448  0.80931249  0.98012281    -0.05600
C534        C  0.25793896  0.84588440  0.98446270     0.00300
C535        C  0.28577779  0.86915467  0.97418606    -0.08300
C536        C  0.31738581  0.85493232  0.95777808    -0.05700
C537        C  0.32157464  0.81861232  0.95030355     0.00300
C538        C  0.29465249  0.79507328  0.96288875    -0.08200
C539        C  0.29777701  0.75512779  0.95771255     0.62200
H540        H  0.24213838  0.79194948  0.98839747     0.12900
H541        H  0.33816945  0.87257756  0.94860840     0.12900
C542        C  0.28174459  0.90904045  0.97872029     0.62400
F543        F  0.27152136  0.73751927  0.97696774    -0.22800
F544        F  0.33109230  0.74261509  0.96943341    -0.20100
F545        F  0.29362199  0.74687458  0.92180169    -0.19800
F546        F  0.26834893  0.91728153  0.01262969    -0.19800
F547        F  0.25842754  0.92248317  0.95297879    -0.20100
F548        F  0.31451262  0.92554780  0.97467661    -0.22800
C549        C  0.95029454  0.35662117  0.84133072    -0.05600
C550        C  0.96383456  0.33239724  0.81546107     0.00300
C551        C  0.96084263  0.34150983  0.77852234    -0.08300
C552        C  0.94395143  0.37414599  0.76913765    -0.05700
C553        C  0.92878148  0.39755850  0.79495927     0.00300
C554        C  0.93220901  0.38864337  0.83189928    -0.08200
C555        C  0.91508490  0.41148095  0.86138300     0.62200
H556        H  0.95261316  0.34945127  0.86938725     0.12900
H557        H  0.94134006  0.38109291  0.74104844     0.12900
C558        C  0.97380709  0.31648814  0.74883707     0.62400
F559        F  0.92061777  0.39717658  0.89519458    -0.22800
F560        F  0.87813816  0.41443132  0.85621787    -0.20100
F561        F  0.92988541  0.44475325  0.86090967    -0.19800
F562        F  0.95734765  0.28415946  0.75242025    -0.19800
F563        F  0.01091730  0.31170398  0.75068415    -0.20100
F564        F  0.96562485  0.32948562  0.71500132    -0.22800
C565        C  0.81506562  0.41364085  0.65390453    -0.05600
C566        C  0.83645712  0.44382368  0.65544339     0.00300
C567        C  0.84912061  0.45914046  0.62297092    -0.08300
C568        C  0.83815733  0.44452380  0.59025218    -0.05700
C569        C  0.81574099  0.41505663  0.58875514     0.00300
C570        C  0.80488052  0.39850479  0.62123208    -0.08200
C571        C  0.78293325  0.36498488  0.62205302     0.62200
H572        H  0.80591939  0.40190364  0.67880766     0.12900
H573        H  0.84673953  0.45655211  0.56529378     0.12900
C574        C  0.87435868  0.49034443  0.62229414     0.62400
F575        F  0.78033895  0.35096601  0.65636704    -0.22800
F576        F  0.79922419  0.33933510  0.60038876    -0.20100
F577        F  0.74825322  0.37243056  0.61024543    -0.19800
F578        F  0.90542664  0.48182419  0.64116163    -0.19800
F579        F  0.85729437  0.51982758  0.63741482    -0.20100
F580        F  0.88472539  0.49925537  0.58767362    -0.22800
C581        C  0.18744824  0.51125748  0.21216294    -0.05600
C582        C  0.14990462  0.51443619  0.21758500     0.00300
C583        C  0.12672750  0.50419189  0.18923208    -0.08300
C584        C  0.14208593  0.48765904  0.15847380    -0.05700
C585        C  0.17949578  0.48120128  0.15481284     0.00300
C586        C  0.20282207  0.49507981  0.18131449    -0.08200
C587        C  0.24381614  0.49190279  0.17827513     0.62200
H588        H  0.20495079  0.52003674  0.23333741     0.12900
H589        H  0.12460421  0.47809349  0.13763784     0.12900
C590        C  0.08589932  0.50950153  0.19136954     0.62400
F591        F  0.26078035  0.51038410  0.20513862    -0.22800
F592        F  0.25524239  0.50562406  0.14571627    -0.20100
F593        F  0.25481143  0.45672904  0.18106357    -0.19800
F594        F  0.07734370  0.54456051  0.19916196    -0.19800
F595        F  0.07177484  0.48778378  0.21764905    -0.20100
F596        F  0.06940202  0.50135535  0.15928606    -0.22800
C597        C  0.05974992  0.42726791  0.37744373    -0.05600
C598        C  0.08906683  0.43191728  0.35373088     0.00300
C599        C  0.10973348  0.40182554  0.34192641    -0.08300
C600        C  0.09897695  0.36822096  0.35300506    -0.05700
C601        C  0.06866398  0.36340782  0.37520559     0.00300
C602        C  0.04894908  0.39347767  0.38845107    -0.08200
C603        C  0.01602640  0.39035020  0.41293739     0.62200
H604        H  0.04460121  0.45046942  0.38666973     0.12900
H605        H  0.11402738  0.34502910  0.34360139     0.12900
C606        C  0.14282449  0.40441609  0.31752784     0.62400
F607        F  0.00123605  0.42314838  0.42230434    -0.22800
F608        F  0.02566136  0.37320957  0.44439045    -0.20100
F609        F  0.98961832  0.37162687  0.39567552    -0.19800
F610        F  0.16733522  0.42720163  0.33230469    -0.19800
F611        F  0.13246739  0.41647652  0.28396759    -0.20100
F612        F  0.16048016  0.37195372  0.31285696    -0.22800
C613        C  0.90532013  0.28804761  0.40487306    -0.05600
C614        C  0.93443278  0.28514157  0.42875508     0.00300
C615        C  0.92982556  0.29852071  0.46421236    -0.08300
C616        C  0.89669117  0.31546473  0.47370625    -0.05700
C617        C  0.86785940  0.31970743  0.44940867     0.00300
C618        C  0.87208675  0.30492811  0.41442085    -0.08200
C619        C  0.84229078  0.30726548  0.38676895     0.62200
H620        H  0.90922190  0.27764623  0.37797289     0.12900
H621        H  0.89346537  0.32643403  0.50042162     0.12900
C622        C  0.95979804  0.29595924  0.49190488     0.62400
F623        F  0.85140008  0.28883579  0.35566983    -0.22800
F624        F  0.83581209  0.34228751  0.37749330    -0.20100
F625        F  0.81110413  0.29295636  0.40070561    -0.19800
F626        F  0.99030844  0.31255552  0.47926504    -0.19800
F627        F  0.96807355  0.26072949  0.49890655    -0.20100
F628        F  0.94982502  0.31187021  0.52414449    -0.22800
C629        C  0.31413525  0.56737270  0.65774662    -0.05600
C630        C  0.27684732  0.57259376  0.65287896     0.00300
C631        C  0.25265301  0.56010366  0.67970685    -0.08300
C632        C  0.26691184  0.54380925  0.71080042    -0.05700
C633        C  0.30427180  0.53910992  0.71614941     0.00300
C634        C  0.32843234  0.55045138  0.68855569    -0.08200
C635        C  0.36917166  0.54507630  0.69108678     0.62200
H636        H  0.33220378  0.57707535  0.63710915     0.12900
H637        H  0.24866956  0.53509938  0.73173066     0.12900
C638        C  0.21185738  0.56447213  0.67622698     0.62400
F639        F  0.38653942  0.55309795  0.65907295    -0.22800
F640        F  0.37754479  0.51005930  0.69907072    -0.20100
F641        F  0.38251863  0.56684418  0.71744732    -0.19800
F642        F  0.20026658  0.54433779  0.64773195    -0.19800
F643        F  0.20240437  0.59969141  0.67060008    -0.20100
F644        F  0.19373405  0.55345978  0.70679673    -0.22800
C645        C  0.17999357  0.60579558  0.41024498    -0.05600
C646        C  0.17695087  0.56900412  0.40641400     0.00300
C647        C  0.19196799  0.54641174  0.43346604    -0.08300
C648        C  0.20820826  0.56189121  0.46361930    -0.05700
C649        C  0.20912872  0.59874903  0.46837308     0.00300
C650        C  0.19523670  0.62123691  0.44079102    -0.08200
C651        C  0.19552358  0.66145436  0.44333003     0.62200
H652        H  0.16887248  0.62277337  0.38946600     0.12900
H653        H  0.21889425  0.54509195  0.48478749     0.12900
C654        C  0.19010433  0.50625328  0.43169084     0.62400
F655        F  0.18471307  0.67757053  0.41164117    -0.22800
F656        F  0.23008362  0.67242669  0.45062050    -0.20100
F657        F  0.17191531  0.67302371  0.47012630    -0.19800
F658        F  0.20697869  0.49397120  0.40064840    -0.19800
F659        F  0.15439029  0.49626605  0.43222635    -0.20100
F660        F  0.20714130  0.48994004  0.46050590    -0.22800
C661        C  0.94913579  0.62082779  0.72197158    -0.05600
C662        C  0.92385149  0.64709494  0.71138929     0.00300
C663        C  0.88651404  0.64080015  0.71602294    -0.08300
C664        C  0.87592575  0.60775911  0.72996033    -0.05700
C665        C  0.90124198  0.58073131  0.73901944     0.00300
C666        C  0.93872905  0.58786694  0.73589253    -0.08200
C667        C  0.96800102  0.56127052  0.74725798     0.62200
H668        H  0.97757625  0.62614363  0.71846530     0.12900
H669        H  0.84744651  0.60229646  0.73250592     0.12900
C670        C  0.85792077  0.66789081  0.70443517     0.62400
F671        F  0.00211942  0.57546526  0.74567353    -0.22800
F672        F  0.96830017  0.53207386  0.72482739    -0.20100
F673        F  0.96172980  0.55080039  0.78235224    -0.19800
F674        F  0.86177518  0.67480620  0.66809751    -0.19800
F675        F  0.86153035  0.69890877  0.72365070    -0.20100
F676        F  0.82326366  0.65608424  0.71039570    -0.22800
C677        C  0.09620965  0.69743090  0.65238642    -0.05600
C678        C  0.06668310  0.68761392  0.63155824     0.00300
C679        C  0.07210502  0.66307900  0.60293822    -0.08300
C680        C  0.10744909  0.65119351  0.59505341    -0.05700
C681        C  0.13741808  0.66343987  0.61382374     0.00300
C682        C  0.13175324  0.68625402  0.64380033    -0.08200
C683        C  0.16265732  0.70025830  0.66586232     0.62200
H684        H  0.09143322  0.71566991  0.67446425     0.12900
H685        H  0.11201874  0.63322207  0.57273969     0.12900
C686        C  0.04128164  0.64933692  0.58035517     0.62400
F687        F  0.15037123  0.71848034  0.69603783    -0.22800
F688        F  0.18250456  0.72331442  0.64514780    -0.20100
F689        F  0.18474533  0.67257586  0.67749541    -0.19800
F690        F  0.02633627  0.67653891  0.56002339    -0.19800
F691        F  0.01505682  0.63520382  0.60247308    -0.20100
F692        F  0.05286402  0.62299427  0.55672461    -0.22800
C693        C  0.00362475  0.87875573  0.73349205    -0.05600
C694        C  0.01957283  0.89985456  0.70673667     0.00300
C695        C  0.01454746  0.89064072  0.67016602    -0.08300
C696        C  0.99786610  0.85838971  0.66224643    -0.05700
C697        C  0.98589628  0.83521785  0.68933577     0.00300
C698        C  0.98658560  0.84680468  0.72555375    -0.08200
C699        C  0.97030152  0.82563286  0.75610417     0.62200
H700        H  0.00600746  0.88659191  0.76130417     0.12900
H701        H  0.99589642  0.85015268  0.63450382     0.12900
C702        C  0.02736697  0.91380611  0.63943359     0.62400
F703        F  0.96717391  0.84542234  0.78736496    -0.22800
F704        F  0.99204013  0.79618475  0.76312254    -0.20100
F705        F  0.93600093  0.81512873  0.74709890    -0.19800
F706        F  0.06473266  0.91351866  0.63821600    -0.19800
F707        F  0.01424854  0.94814177  0.64412344    -0.20100
F708        F  0.01527906  0.90205137  0.60651857    -0.22800
C709        C  0.50423307  0.70715276  0.34329899    -0.05600
C710        C  0.48618841  0.72766631  0.31702085     0.00300
C711        C  0.48419251  0.71401146  0.28155025    -0.08300
C712        C  0.50088694  0.68080506  0.27387808    -0.05700
C713        C  0.52105169  0.66156673  0.29958316     0.00300
C714        C  0.52247919  0.67489624  0.33519776    -0.08200
C715        C  0.54491608  0.65672252  0.36421228     0.62200
H716        H  0.50563566  0.71755754  0.37031639     0.12900
H717        H  0.49988540  0.67038554  0.24682917     0.12900
C718        C  0.46668764  0.73494068  0.25117644     0.62400
F719        F  0.54229875  0.67434416  0.39678978    -0.22800
F720        F  0.58095928  0.65568802  0.35388136    -0.20100
F721        F  0.53315200  0.62267062  0.36973973    -0.19800
F722        F  0.48573046  0.76547418  0.24507944    -0.19800
F723        F  0.43116146  0.74365797  0.25991639    -0.20100
F724        F  0.46657563  0.71592061  0.21938426    -0.22800
C725        C  0.75237121  0.97926829  0.31636616    -0.05600
C726        C  0.77603274  0.97092963  0.34470244     0.00300
C727        C  0.81218056  0.98257308  0.34244596    -0.08300
C728        C  0.82336144  0.00120074  0.31149872    -0.05700
C729        C  0.79986527  0.00906652  0.28284472     0.00300
C730        C  0.76345583  0.99788073  0.28542639    -0.08200
C731        C  0.73634657  0.00432107  0.25547249     0.62200
H732        H  0.72480697  0.97047660  0.31839175     0.12900
H733        H  0.85108077  0.00949820  0.30930291     0.12900
C734        C  0.83909365  0.97540504  0.37232371     0.62400
F735        F  0.70273956  0.99103552  0.26375429    -0.22800
F736        F  0.74844961  0.98783900  0.22425271    -0.20100
F737        F  0.73181197  0.04032357  0.24959268    -0.19800
F738        F  0.84233947  0.93938817  0.37887422    -0.19800
F739        F  0.82740525  0.99276511  0.40319672    -0.20100
F740        F  0.87316749  0.98731627  0.36374266    -0.22800
C741        C  0.62958220  0.86051430  0.36382528    -0.05600
C742        C  0.63276970  0.88378372  0.39303457     0.00300
C743        C  0.60103389  0.89629261  0.41119228    -0.08300
C744        C  0.56738950  0.88615493  0.39824423    -0.05700
C745        C  0.56408677  0.86244958  0.36946006     0.00300
C746        C  0.59589632  0.84881568  0.35209264    -0.08200
C747        C  0.59503132  0.82131572  0.32223794     0.62200
H748        H  0.65402723  0.85080318  0.35056701     0.12900
H749        H  0.54306071  0.89627556  0.41138511     0.12900
C750        C  0.60201295  0.91906589  0.44489699     0.62400
F751        F  0.62933325  0.81221141  0.30954937    -0.22800
F752        F  0.57542212  0.83441145  0.29349581    -0.20100
F753        F  0.57955141  0.79076072  0.33508137    -0.19800
F754        F  0.61599377  0.95175796  0.43674204    -0.19800
F755        F  0.62300470  0.90230646  0.47070160    -0.20100
F756        F  0.56792724  0.92483508  0.45977766    -0.22800
C757        C  0.16614276  0.16868786  0.46213196    -0.05600
C758        C  0.18461255  0.19185046  0.48492700     0.00300
C759        C  0.16902031  0.22599986  0.49178191    -0.08300
C760        C  0.13676214  0.23600725  0.47421357    -0.05700
C761        C  0.11969810  0.21361907  0.44985256     0.00300
C762        C  0.13434152  0.17906462  0.44394465    -0.08200
C763        C  0.11808905  0.15397342  0.41691784     0.62200
H764        H  0.17773090  0.14251714  0.45728286     0.12900
H765        H  0.12504263  0.26223560  0.47853024     0.12900
C766        C  0.18627723  0.25236185  0.51672715     0.62400
F767        F  0.13825299  0.12273727  0.41349811    -0.22800
F768        F  0.11676321  0.16992895  0.38346142    -0.20100
F769        F  0.08356312  0.14536616  0.42774946    -0.19800
F770        F  0.16518633  0.28292764  0.52093848    -0.19800
F771        F  0.21938693  0.26207348  0.50286197    -0.20100
F772        F  0.19079876  0.23732733  0.55032640    -0.22800
C773        C  0.45460902  0.18535695  0.21998538    -0.05600
C774        C  0.43658311  0.16588014  0.19371625     0.00300
C775        C  0.43953975  0.17663564  0.15722261    -0.08300
C776        C  0.45879617  0.20748999  0.14892311    -0.05700
C777        C  0.47452891  0.22850770  0.17557706     0.00300
C778        C  0.47355577  0.21638839  0.21175496    -0.08200
C779        C  0.49157078  0.23617779  0.24198225     0.62200
H780        H  0.45273382  0.17659198  0.24763085     0.12900
H781        H  0.46015586  0.21640795  0.12131102     0.12900
C782        C  0.42092414  0.15705721  0.12719958     0.62400
F783        F  0.49073411  0.21751088  0.27399455    -0.22800
F784        F  0.47383507  0.26837969  0.24768959    -0.20100
F785        F  0.52744043  0.24162286  0.23325257    -0.19800
F786        F  0.38410399  0.15657873  0.13391727    -0.19800
F787        F  0.43462491  0.12272300  0.12490374    -0.20100
F788        F  0.42611366  0.17298592  0.09407784    -0.22800
C789        C  0.34810301  0.08824344  0.36351333    -0.05600
C790        C  0.33704296  0.11125203  0.33579849     0.00300
C791        C  0.31678031  0.14250037  0.34456932    -0.08300
C792        C  0.30911530  0.14990809  0.38093682    -0.05700
C793        C  0.32020178  0.12704591  0.40881758     0.00300
C794        C  0.33964510  0.09521288  0.39994617    -0.08200
C795        C  0.35178447  0.06872374  0.42846256     0.62200
H796        H  0.36321495  0.06433769  0.35624338     0.12900
H797        H  0.29391302  0.17384703  0.38784603     0.12900
C798        C  0.30413836  0.16863801  0.31592865     0.62400
F799        F  0.37162701  0.04059132  0.41389757    -0.22800
F800        F  0.32191661  0.05499164  0.44566844    -0.20100
F801        F  0.37335399  0.08517582  0.45326958    -0.19800
F802        F  0.27930249  0.15294914  0.29388020    -0.19800
F803        F  0.33342005  0.17934693  0.29562372    -0.20100
F804        F  0.28756613  0.19859458  0.33066207    -0.22800
C805        C  0.43838283  0.93056136  0.26020612    -0.05600
C806        C  0.41649613  0.91572708  0.28720466     0.00300
C807        C  0.38345649  0.93358700  0.29672389    -0.08300
C808        C  0.37436954  0.96587362  0.27956277    -0.05700
C809        C  0.39726614  0.98161724  0.25413370     0.00300
C810        C  0.42931704  0.96305113  0.24331030    -0.08200
C811        C  0.45371007  0.97695881  0.21377640     0.62200
H812        H  0.46341457  0.91681740  0.25290661     0.12900
H813        H  0.34975312  0.98011074  0.28729315     0.12900
C814        C  0.35853137  0.92002615  0.32609576     0.62400
F815        F  0.47929917  0.95171106  0.20287821    -0.22800
F816        F  0.47172440  0.00618637  0.22594099    -0.20100
F817        F  0.43330663  0.98630590  0.18412557    -0.19800
F818        F  0.37705583  0.91739345  0.35814135    -0.19800
F819        F  0.34587258  0.88721607  0.31661485    -0.20100
F820        F  0.32880507  0.94241802  0.33176512    -0.22800
C821        C  0.61892425  0.35953995  0.53248339    -0.05600
C822        C  0.61319768  0.32282844  0.53313438     0.00300
C823        C  0.63883122  0.29988648  0.51535957    -0.08300
C824        C  0.67056454  0.31428185  0.50092310    -0.05700
C825        C  0.67748857  0.35046959  0.50281122    -0.09300
C826        C  0.65058236  0.37390194  0.51755689    -0.08200
C827        C  0.65565942  0.41370093  0.51894873     0.62200
H828        H  0.59898251  0.37698126  0.54519239     0.12900
H829        H  0.69126531  0.29695352  0.48923344     0.12900
C830        C  0.63441185  0.26006885  0.51295123     0.62400
F831        F  0.62696680  0.43124721  0.53593441    -0.22800
F832        F  0.65819423  0.42680905  0.48436258    -0.20100
F833        F  0.68675880  0.42120371  0.53752526    -0.19800
F834        F  0.60064849  0.25253865  0.49973127    -0.19800
F835        F  0.63872552  0.24514211  0.54663224    -0.20100
F836        F  0.65981138  0.24432406  0.49008777    -0.22800
C837        C  0.38464178  0.24797796  0.52509481    -0.05600
C838        C  0.36422707  0.22955016  0.55081557     0.00300
C839        C  0.37439734  0.23158233  0.58743229    -0.08300
C840        C  0.40646177  0.24892929  0.59624630    -0.05700
C841        C  0.42868663  0.26464978  0.57010306     0.00300
C842        C  0.41654413  0.26570747  0.53395037    -0.08200
C843        C  0.43750924  0.28398593  0.50426690     0.62200
H844        H  0.37618511  0.24709434  0.49734307     0.12900
H845        H  0.41524050  0.24894110  0.62389786     0.12900
C846        C  0.35242885  0.21466663  0.61718675     0.62400
F847        F  0.41810791  0.28610415  0.47266510    -0.22800
F848        F  0.46932178  0.26517239  0.49719795    -0.20100
F849        F  0.44519094  0.31819572  0.51446712    -0.19800
F850        F  0.35116588  0.17850777  0.61175218    -0.19800
F851        F  0.31776594  0.22923628  0.61745063    -0.20100
F852        F  0.36707958  0.22020007  0.65075957    -0.22800
C853        C  0.69227309  0.99263031  0.57077155    -0.05600
C854        C  0.68028910  0.96765923  0.59597515     0.00300
C855        C  0.68743313  0.93118552  0.58927538    -0.08300
C856        C  0.70341700  0.92110097  0.55607337    -0.05700
C857        C  0.71286684  0.94605957  0.52957461     0.00300
C858        C  0.70864181  0.98270284  0.53782868    -0.08200
C859        C  0.72054465  0.01157179  0.51213087     0.62200
H860        H  0.68761798  0.02045605  0.57668658     0.12900
H861        H  0.70745776  0.89322942  0.55008611     0.12900
C862        C  0.67711105  0.90289686  0.61623574     0.62400
F863        F  0.71733142  0.04493603  0.52742650    -0.22800
F864        F  0.69934767  0.01157756  0.48172505    -0.20100
F865        F  0.75646828  0.00592754  0.50262598    -0.19800
F866        F  0.64017708  0.90439094  0.62238305    -0.19800
F867        F  0.69499217  0.90824668  0.64817204    -0.20100
F868        F  0.68634145  0.86914568  0.60421137    -0.22800
C869        C  0.55352528  0.11768903  0.63597647    -0.05600
C870        C  0.58815073  0.11228017  0.65026159     0.00300
C871        C  0.61144015  0.14132460  0.65333421    -0.08300
C872        C  0.59875929  0.17496780  0.64220393    -0.05700
C873        C  0.56409982  0.18049622  0.62763068     0.00300
C874        C  0.54107073  0.15108521  0.62399203    -0.08200
C875        C  0.50391869  0.15401342  0.60692172     0.62200
H876        H  0.53639537  0.09499606  0.63343714     0.12900
H877        H  0.61620735  0.19741135  0.64465762     0.12900
C878        C  0.64903444  0.13730487  0.66923048     0.62400
F879        F  0.48579644  0.12237187  0.60860524    -0.22800
F880        F  0.50775875  0.16297116  0.57107806    -0.20100
F881        F  0.48261615  0.17933111  0.62440348    -0.19800
F882        F  0.67085062  0.11635047  0.64708518    -0.19800
F883        F  0.64680413  0.12196643  0.70293237    -0.20100
F884        F  0.66549899  0.16959638  0.67295271    -0.22800
C885        C  0.63220466  0.03846357  0.80899055    -0.05600
C886        C  0.65683706  0.03308551  0.78027482     0.00300
C887        C  0.69379741  0.04064811  0.78581846    -0.08300
C888        C  0.70413242  0.05479379  0.81911026    -0.05700
C889        C  0.67911994  0.06276674  0.84684978     0.00300
C890        C  0.64248137  0.05336998  0.84211384    -0.08200
C891        C  0.61406526  0.05912519  0.87140271     0.62200
H892        H  0.60421838  0.03200579  0.80483252     0.12900
H893        H  0.73206296  0.06155932  0.82297164     0.12900
C894        C  0.72223515  0.03592231  0.75634150     0.62400
F895        F  0.58131963  0.04468674  0.86239353    -0.22800
F896        F  0.60808239  0.09498125  0.87703451    -0.20100
F897        F  0.62557908  0.04323441  0.90292327    -0.19800
F898        F  0.71353778  0.05768505  0.72760365    -0.19800
F899        F  0.72405021  0.00096198  0.74525485    -0.20100
F900        F  0.75635699  0.04464773  0.76780639    -0.22800
C901        C  0.00797880  0.09626843  0.18711260    -0.05600
C902        C  0.00730955  0.13396413  0.18729620     0.00300
C903        C  0.97217992  0.15077647  0.19419257    -0.08300
C904        C  0.94112997  0.12953990  0.19500639    -0.05700
C905        C  0.94253883  0.09268514  0.19105202     0.00300
C906        C  0.97691208  0.07550035  0.18821752    -0.08200
C907        C  0.98153283  0.03529786  0.18591761     0.62200
H908        H  0.03321423  0.08202165  0.18666981     0.12900
H909        H  0.91462529  0.14184418  0.19841371     0.12900
C910        C  0.96515120  0.19064843  0.20055657     0.62400
F911        F  0.01747060  0.02423566  0.18436087    -0.22800
F912        F  0.96513308  0.02310728  0.15520883    -0.20100
F913        F  0.96638096  0.01976320  0.21596818    -0.19800
F914        F  0.97382292  0.21024705  0.17072226    -0.19800
F915        F  0.98391761  0.20257584  0.22961133    -0.20100
F916        F  0.92912637  0.19851603  0.20812774    -0.22800
C917        C  0.06106812  0.20809804  0.22416978    -0.05600
C918        C  0.04961400  0.17280154  0.22041972     0.00300
C919        C  0.04152517  0.15524803  0.25409299    -0.08300
C920        C  0.03556065  0.17539335  0.28551518    -0.05700
C921        C  0.04359002  0.21123124  0.28758783     0.00300
C922        C  0.05804451  0.22771290  0.25647940    -0.08200
C923        C  0.07076798  0.26576316  0.25680729     0.62200
H924        H  0.07529499  0.21998221  0.20267164     0.12900
H925        H  0.02651002  0.16214504  0.30963572     0.12900
C926        C  0.04345803  0.11547961  0.26060160     0.62400
F927        F  0.08362214  0.27644724  0.22356833    -0.22800
F928        F  0.09850578  0.26896489  0.28117436    -0.20100
F929        F  0.04231950  0.28851983  0.26606779    -0.19800
F930        F  0.06510636  0.09813559  0.23567427    -0.19800
F931        F  0.00901934  0.10209936  0.26117580    -0.20100
F932        F  0.05895591  0.10821241  0.29364192    -0.22800
C933        C  0.04746792  0.17945834  0.08296027    -0.05600
C934        C  0.06816813  0.21005190  0.08451068     0.00300
C935        C  0.05776772  0.23264638  0.11390267    -0.08300
C936        C  0.04491724  0.21644452  0.14587536    -0.05700
C937        C  0.03753944  0.17980313  0.14753621     0.00300
C938        C  0.02870534  0.16594423  0.11281851    -0.08200
C939        C  0.99333510  0.14696893  0.10468625     0.62200
H940        H  0.04177837  0.16927743  0.05709579     0.12900
H941        H  0.03529177  0.23370122  0.16720072     0.12900
C942        C  0.05044726  0.27234349  0.11031459     0.62400
F943        F  0.96445076  0.16525048  0.12006431    -0.22800
F944        F  0.99319408  0.11249225  0.11643487    -0.20100
F945        F  0.98657281  0.14582839  0.06815543    -0.19800
F946        F  0.05092410  0.28359689  0.07513286    -0.19800
F947        F  0.07507992  0.29111948  0.12978043    -0.20100
F948        F  0.01621913  0.28066918  0.12360139    -0.22800
C949        C  0.04115604  0.23054993  0.01512660    -0.05600
C950        C  0.07853276  0.22103814  0.01601829     0.00300
C951        C  0.09723867  0.21898745  0.98165406    -0.08300
C952        C  0.07688598  0.22190657  0.94982855    -0.05700
C953        C  0.03967766  0.22924889  0.94990813     0.00300
C954        C  0.02160639  0.23479634  0.98313828    -0.08200
C955        C  0.98200283  0.24643994  0.98522833     0.62200
H956        H  0.02651448  0.23488113  0.03987906     0.12900
H957        H  0.09008796  0.21769561  0.92402566     0.12900
C958        C  0.13785312  0.21226167  0.97640580     0.62400
F959        F  0.97142341  0.25578051  0.01982805    -0.22800
F960        F  0.96043401  0.21919354  0.97425031    -0.20100
F961        F  0.97617281  0.27569910  0.96347766    -0.19800
F962        F  0.14606741  0.17649829  0.97933450    -0.19800
F963        F  0.15778285  0.23093121  0.00060099    -0.20100
F964        F  0.14921913  0.22306009  0.94263015    -0.22800
C965        C  0.11419353  0.28183639  0.03758862    -0.05600
C966        C  0.11801337  0.25296668  0.06225053     0.00300
C967        C  0.13902499  0.26038177  0.09397407    -0.08300
C968        C  0.15734277  0.29293148  0.09623709    -0.05700
C969        C  0.15389384  0.31999154  0.07042176     0.00300
C970        C  0.12998262  0.31493708  0.04165666    -0.08200
C971        C  0.11984749  0.34444575  0.01527019     0.62200
H972        H  0.09709338  0.27985589  0.01479402     0.12900
H973        H  0.17425916  0.29759382  0.11928571     0.12900
C974        C  0.14365602  0.23683396  0.12721808     0.62400
F975        F  0.09429789  0.33430895  0.99059355    -0.22800
F976        F  0.15003649  0.35461814  0.99606231    -0.20100
F977        F  0.10510672  0.37305186  0.03400724    -0.19800
F978        F  0.18002921  0.23123387  0.13388635    -0.19800
F979        F  0.12808709  0.20425023  0.12495872    -0.20100
F980        F  0.12869234  0.25410406  0.15673267    -0.22800
C981        C  0.16022151  0.18519458  0.06251108    -0.05600
C982        C  0.12343816  0.18278346  0.05235105     0.00300
C983        C  0.11237039  0.14724385  0.04491169    -0.08300
C984        C  0.13151500  0.11932921  0.06110636    -0.05700
C985        C  0.16507325  0.12201941  0.07862436     0.00300
C986        C  0.18114314  0.15653822  0.07725681    -0.08200
C987        C  0.21869307  0.16588090  0.09141476     0.62200
H988        H  0.17221806  0.21070634  0.06111703     0.12900
H989        H  0.11996022  0.09355298  0.05921339     0.12900
C990        C  0.08381947  0.13354498  0.01871617     0.62400
F991        F  0.22564060  0.20156713  0.08782529    -0.22800
F992        F  0.24571102  0.14875976  0.07220491    -0.20100
F993        F  0.22213177  0.15820157  0.12740094    -0.19800
F994        F  0.06315591  0.15808390  0.00070389    -0.19800
F995        F  0.06048110  0.11146128  0.03688343    -0.20100
F996        F  0.10130512  0.11379150  0.99240887    -0.22800
C997        C  0.07587529  0.10566010  0.14343972    -0.05600
C998        C  0.07942493  0.13199759  0.17034209     0.00300
C999        C  0.11683436  0.13922729  0.17826702    -0.08300
C1000       C  0.14400275  0.12601390  0.15459672    -0.05700
C1001       C  0.14062052  0.09605745  0.13212110     0.00300
C1002       C  0.10435877  0.08333363  0.13041181    -0.08200
C1003       C  0.09362211  0.04611846  0.11912454     0.62200
H1004       H  0.04959488  0.10057556  0.13328129     0.12900
H1005       H  0.16954551  0.13891566  0.15487421     0.12900
C1006       C  0.13205292  0.15928069  0.21023878     0.62400
F1007       F  0.05681996  0.04124541  0.12301089    -0.22800
F1008       F  0.11022030  0.02155760  0.14141159    -0.20100
F1009       F  0.10176892  0.03886918  0.08372699    -0.19800
F1010       F  0.11464026  0.15127625  0.24187095    -0.19800
F1011       F  0.13155133  0.19516686  0.20387370    -0.20100
F1012       F  0.16793780  0.14954128  0.21602420    -0.22800
C1013       C  0.17565752  0.02269376  0.10910873    -0.05600
C1014       C  0.17225021  0.05180569  0.08477014     0.00300
C1015       C  0.17017955  0.04235565  0.04669909    -0.08300
C1016       C  0.16652133  0.00629986  0.03791693    -0.05700
C1017       C  0.16760390  0.97876646  0.06281803     0.00300
C1018       C  0.17359687  0.98681556  0.09903301    -0.08200
C1019       C  0.17572977  0.95792581  0.12734830     0.62200
H1020       H  0.17828615  0.02824821  0.13733570     0.12900
H1021       H  0.16369383  0.99904447  0.00996500     0.12900
C1022       C  0.17234816  0.06416394  0.01161271     0.62400
F1023       F  0.18093832  0.97147356  0.16140718    -0.22800
F1024       F  0.20439038  0.93487023  0.11975464    -0.20100
F1025       F  0.14386855  0.93951895  0.12775232    -0.19800
F1026       F  0.17752117  0.09989863  0.01359190    -0.19800
F1027       F  0.14103157  0.05917333  0.99245170    -0.20100
F1028       F  0.20088245  0.05076050  0.99099024    -0.22800
C1029       C  0.27800920  0.08604698  0.12887787    -0.05600
C1030       C  0.27617956  0.08730403  0.16636994     0.00300
C1031       C  0.24238319  0.08330954  0.18338612    -0.08300
C1032       C  0.21122591  0.08334011  0.16224493    -0.05700
C1033       C  0.21137950  0.08774788  0.12415949     0.00300
C1034       C  0.24668230  0.08378749  0.10738764    -0.08200
C1035       C  0.25316425  0.07253849  0.06852886     0.62200
H1036       H  0.30465659  0.08527006  0.11663947     0.12900
H1037       H  0.18634001  0.07829063  0.17624342     0.12900
C1038       C  0.23902634  0.07737594  0.22379253     0.62400
F1039       F  0.24540265  0.03718408  0.06457360    -0.22800
F1040       F  0.28874891  0.07662249  0.05777829    -0.20100
F1041       F  0.23256735  0.09242097  0.04557129    -0.19800
F1042       F  0.24404758  0.10894945  0.24159147    -0.19800
F1043       F  0.26455414  0.05245423  0.23507740    -0.20100
F1044       F  0.20541102  0.06502435  0.23355618    -0.22800
C1045       C  0.60665709  0.25915869  0.94042979    -0.05600
C1046       C  0.62760333  0.29014083  0.93937374     0.00300
C1047       C  0.66587325  0.28462540  0.94662946    -0.08300
C1048       C  0.68057072  0.25015472  0.94271763    -0.05700
C1049       C  0.65946115  0.22027708  0.93911447     0.00300
C1050       C  0.62156464  0.22450332  0.94089405    -0.08200
C1051       C  0.59687108  0.19300708  0.94277152     0.62200
H1052       H  0.57771649  0.26204524  0.93972016     0.12900
H1053       H  0.70967659  0.24616732  0.94469445     0.12900
C1054       C  0.69439417  0.31006684  0.96050320     0.62400
F1055       F  0.56068580  0.20329875  0.94278970    -0.22800
F1056       F  0.60340131  0.17436093  0.97415094    -0.20100
F1057       F  0.60305624  0.17103464  0.91353090    -0.19800
F1058       F  0.68375470  0.34442467  0.96696354    -0.19800
F1059       F  0.72324246  0.31067581  0.93664721    -0.20100
F1060       F  0.70727153  0.29683197  0.99277760    -0.22800
C1061       C  0.60594959  0.33286018  0.00430540    -0.05600
C1062       C  0.58438725  0.32699672  0.97347580     0.00300
C1063       C  0.54700291  0.31768244  0.98114857    -0.08300
C1064       C  0.53370292  0.32166069  0.01654715    -0.05700
C1065       C  0.55550725  0.32903891  0.04573834     0.00300
C1066       C  0.59248298  0.33437882  0.03980072    -0.08200
C1067       C  0.61747660  0.34262231  0.07067931     0.62200
H1068       H  0.63433759  0.33667671  0.00056758     0.12900
H1069       H  0.50546139  0.31635878  0.02212006     0.12900
C1070       C  0.51835820  0.30022866  0.95770742     0.62400
F1071       F  0.65145458  0.35197301  0.05871942    -0.22800
F1072       F  0.62145668  0.31314538  0.09249624    -0.20100
F1073       F  0.60315284  0.37061921  0.09064713    -0.19800
F1074       F  0.50980160  0.26809414  0.97320447    -0.19800
F1075       F  0.52707141  0.29292518  0.92279046    -0.20100
F1076       F  0.48731038  0.32141855  0.95746085    -0.22800
C1077       C  0.66728675  0.39633719  0.88921723    -0.05600
C1078       C  0.66147047  0.42788601  0.90913618     0.00300
C1079       C  0.64123565  0.42334363  0.94214812    -0.08300
C1080       C  0.62396784  0.39069915  0.94865060    -0.05700
C1081       C  0.62985365  0.35938708  0.92806933     0.00300
C1082       C  0.65445244  0.36290964  0.89798127    -0.08200
C1083       C  0.66993513  0.33495728  0.87198838     0.62200
H1084       H  0.68252523  0.39799455  0.86439181     0.12900
H1085       H  0.60506106  0.39039556  0.97083017     0.12900
C1086       C  0.63896273  0.44801937  0.97459730     0.62400
F1087       F  0.66085554  0.34388885  0.83709778    -0.22800
F1088       F  0.65942200  0.30145148  0.87779683    -0.20100
F1089       F  0.70719479  0.33429719  0.87409785    -0.19800
F1090       F  0.65407205  0.48027326  0.96961915    -0.19800
F1091       F  0.65666905  0.43159623  0.00290560    -0.20100
F1092       F  0.60325325  0.45382936  0.98495914    -0.22800
C1093       C  0.64217004  0.52736118  0.88571285    -0.05600
C1094       C  0.66639581  0.50112952  0.90058551     0.00300
C1095       C  0.69419486  0.51516219  0.92349385    -0.08300
C1096       C  0.69299077  0.55121673  0.93312990    -0.05700
C1097       C  0.66536505  0.57425181  0.92266592     0.00300
C1098       C  0.63966960  0.56271776  0.89804296    -0.08200
C1099       C  0.61077740  0.58815395  0.88371099     0.62200
H1100       H  0.62411871  0.52024665  0.86453462     0.12900
H1101       H  0.71341923  0.56183022  0.95051501     0.12900
C1102       C  0.72630707  0.49445941  0.93844770     0.62400
F1103       F  0.58686619  0.57134383  0.86140995    -0.22800
F1104       F  0.62704199  0.61478266  0.86436499    -0.20100
F1105       F  0.59099946  0.60311699  0.91177912    -0.19800
F1106       F  0.75421362  0.49405095  0.91357452    -0.19800
F1107       F  0.71698636  0.46095746  0.94774398    -0.20100
F1108       F  0.73908710  0.50961123  0.96962323    -0.22800
C1109       C  0.70412414  0.48713082  0.83419767    -0.05600
C1110       C  0.70371799  0.46131986  0.86228897     0.00300
C1111       C  0.73733104  0.44039054  0.86680414    -0.08300
C1112       C  0.76631269  0.44646671  0.84273134    -0.05700
C1113       C  0.76556651  0.47248757  0.81631086     0.00300
C1114       C  0.73391475  0.49310467  0.81154930    -0.08200
C1115       C  0.73186137  0.52219066  0.78338163     0.62200
H1116       H  0.67983867  0.50279802  0.82948063     0.12900
H1117       H  0.79124596  0.43084562  0.84515277     0.12900
C1118       C  0.74954701  0.41252035  0.89491527     0.62400
F1119       F  0.69986660  0.54190058  0.78577901    -0.22800
F1120       F  0.73403648  0.50747076  0.74939703    -0.20100
F1121       F  0.76011146  0.54502176  0.78793545    -0.19800
F1122       F  0.72652649  0.40435747  0.92249916    -0.19800
F1123       F  0.78079906  0.42392390  0.91103124    -0.20100
F1124       F  0.75811879  0.38120117  0.87718270    -0.22800
C1125       C  0.57008139  0.43867047  0.84973821    -0.05600
C1126       C  0.57584543  0.41905635  0.81786741     0.00300
C1127       C  0.61265416  0.41941994  0.80431008    -0.08300
C1128       C  0.63908307  0.43819832  0.82422729    -0.05700
C1129       C  0.63284938  0.45537779  0.85813312     0.00300
C1130       C  0.59573142  0.45630288  0.86987411    -0.08200
C1131       C  0.57859237  0.47358710  0.90342443     0.62200
H1132       H  0.54323027  0.43892592  0.86128155     0.12900
H1133       H  0.66642257  0.43621317  0.81445943     0.12900
C1134       C  0.62661093  0.40045752  0.77005185     0.62400
F1135       F  0.56102790  0.44815296  0.92339526    -0.22800
F1136       F  0.55313088  0.49878710  0.89257935    -0.20100
F1137       F  0.60142327  0.48999984  0.92609821    -0.19800
F1138       F  0.61202468  0.41575753  0.73983017    -0.19800
F1139       F  0.61935327  0.36499668  0.77031451    -0.20100
F1140       F  0.66373434  0.40246456  0.76581094    -0.22800
C1141       C  0.57653759  0.34151871  0.83993547    -0.05600
C1142       C  0.54694066  0.36645111  0.84130538     0.00300
C1143       C  0.53204510  0.37163927  0.87733039    -0.08300
C1144       C  0.55286376  0.35876859  0.90657859    -0.05700
C1145       C  0.57874701  0.33046461  0.90358307     0.00300
C1146       C  0.58458723  0.31768374  0.86796581    -0.08200
C1147       C  0.58584446  0.27830481  0.85726655     0.62200
H1148       H  0.59151195  0.33736655  0.81566855     0.12900
H1149       H  0.54806344  0.37039884  0.93273703     0.12900
C1150       C  0.49452697  0.38740872  0.88779725     0.62400
F1151       F  0.55493440  0.26229334  0.86940221    -0.22800
F1152       F  0.61509919  0.25925093  0.86982119    -0.20100
F1153       F  0.58684509  0.27446121  0.82029890    -0.19800
F1154       F  0.46778501  0.36750814  0.87304338    -0.19800
F1155       F  0.48922709  0.42226351  0.87825574    -0.20100
F1156       F  0.48872695  0.38634339  0.92460107    -0.22800
C1157       C  0.54496425  0.33816239  0.76582383    -0.05600
C1158       C  0.54533012  0.37578478  0.76905217     0.00300
C1159       C  0.54118312  0.39495834  0.73536363    -0.08300
C1160       C  0.53729558  0.37591678  0.70276751    -0.05700
C1161       C  0.53964151  0.33900166  0.70089979     0.00300
C1162       C  0.54323852  0.31968157  0.73312141    -0.08200
C1163       C  0.54324985  0.27927030  0.73352334     0.62200
H1164       H  0.54286264  0.32193909  0.78918283     0.12900
H1165       H  0.53293107  0.39016495  0.67782181     0.12900
C1166       C  0.53860069  0.43517607  0.73090980     0.62400
F1167       F  0.53847432  0.26569336  0.76771903    -0.22800
F1168       F  0.57600490  0.26626426  0.72028318    -0.20100
F1169       F  0.51542907  0.26690847  0.71274354    -0.19800
F1170       F  0.55370184  0.44512207  0.69829872    -0.19800
F1171       F  0.55706773  0.45315697  0.75664499    -0.20100
F1172       F  0.50272014  0.44624936  0.73120458    -0.22800
C1173       C  0.43725011  0.41629124  0.80603989    -0.05600
C1174       C  0.43636729  0.45285688  0.81199092     0.00300
C1175       C  0.46953912  0.47054024  0.81339619    -0.08300
C1176       C  0.50198779  0.45072943  0.80945559    -0.05700
C1177       C  0.50422717  0.41309034  0.80764067     0.00300
C1178       C  0.46987852  0.39575808  0.80374291    -0.08200
C1179       C  0.46527713  0.35647275  0.79528165     0.62200
H1180       H  0.41146866  0.40375217  0.80323225     0.12900
H1181       H  0.52609829  0.46567885  0.80858796     0.12900
C1182       C  0.47136719  0.51045289  0.81878794     0.62400
F1183       F  0.43020208  0.34588233  0.80158920    -0.22800
F1184       F  0.48691256  0.33483777  0.81619916    -0.20100
F1185       F  0.47247766  0.35051431  0.75933845    -0.19800
F1186       F  0.45796248  0.51940944  0.85245899    -0.19800
F1187       F  0.45142509  0.52787454  0.79264921    -0.20100
F1188       F  0.50640234  0.52246938  0.81671505    -0.22800
C1189       C  0.89296398  0.74005912  0.49943481    -0.05600
C1190       C  0.86972497  0.71072423  0.49665253     0.00300
C1191       C  0.86162317  0.69270589  0.53071249    -0.08300
C1192       C  0.88115760  0.70210997  0.56148586    -0.05700
C1193       C  0.90572694  0.72927901  0.56209117     0.00300
C1194       C  0.91094335  0.74961118  0.53093598    -0.08200
C1195       C  0.93548368  0.78130405  0.53051663     0.62200
H1196       H  0.89779817  0.75578266  0.47593052     0.12900
H1197       H  0.87697204  0.68768756  0.58638308     0.12900
C1198       C  0.83373382  0.66474414  0.54137857     0.62400
F1199       F  0.93003977  0.80225783  0.50039842    -0.22800
F1200       F  0.97119139  0.76962948  0.53043715    -0.20100
F1201       F  0.92881595  0.80232925  0.56041865    -0.19800
F1202       F  0.85179489  0.63556535  0.55577153    -0.19800
F1203       F  0.81135344  0.65241703  0.51562029    -0.20100
F1204       F  0.81142276  0.67877876  0.56816291    -0.22800
C1205       C  0.84664277  0.77090509  0.43133254    -0.05600
C1206       C  0.83083151  0.74465090  0.45403251     0.00300
C1207       C  0.79961032  0.75734451  0.47454215    -0.08300
C1208       C  0.78207883  0.78937873  0.46423232    -0.05700
C1209       C  0.79667676  0.81272368  0.43921198     0.00300
C1210       C  0.83021402  0.80387741  0.42311009    -0.08200
C1211       C  0.84817136  0.82826638  0.39614937     0.62200
H1212       H  0.87319844  0.76610319  0.41999441     0.12900
H1213       H  0.75733187  0.79802825  0.47763775     0.12900
C1214       C  0.78606901  0.74164956  0.50981255     0.62400
F1215       F  0.87968202  0.81338522  0.38176232    -0.22800
F1216       F  0.85704317  0.85965763  0.41256573    -0.20100
F1217       F  0.82477671  0.83526036  0.36811969    -0.19800
F1218       F  0.81186986  0.74562384  0.53585244    -0.19800
F1219       F  0.77740451  0.70689992  0.50604199    -0.20100
F1220       F  0.75503455  0.75873074  0.52276629    -0.22800
C1221       C  0.82292735  0.60985141  0.43894966    -0.05600
C1222       C  0.79124378  0.61548458  0.41922181     0.00300
C1223       C  0.77202527  0.64700775  0.42865429    -0.08300
C1224       C  0.79216042  0.67632024  0.44083424    -0.05700
C1225       C  0.82856050  0.67297224  0.45303590     0.00300
C1226       C  0.84275142  0.63685167  0.45452570    -0.08200
C1227       C  0.87611003  0.62187485  0.47382035     0.62200
H1228       H  0.83268118  0.58322012  0.44292190     0.12900
H1229       H  0.77842609  0.70176074  0.44100984     0.12900
C1230       C  0.73336417  0.64561513  0.44220108     0.62400
F1231       F  0.89861446  0.60423506  0.44997084    -0.22800
F1232       F  0.86530993  0.59730564  0.49910430    -0.20100
F1233       F  0.89629013  0.64584779  0.49101586    -0.19800
F1234       F  0.71266860  0.62311208  0.42244069    -0.19800
F1235       F  0.71700927  0.67897952  0.44184211    -0.20100
F1236       F  0.73372872  0.63358065  0.47727905    -0.22800
C1237       C  0.73600719  0.55988755  0.35041000    -0.05600
C1238       C  0.74900883  0.59321072  0.36267090     0.00300
C1239       C  0.72733882  0.62393567  0.35024413    -0.08300
C1240       C  0.69425011  0.61814660  0.33260737    -0.05700
C1241       C  0.68149763  0.58490630  0.32454134     0.00300
C1242       C  0.70256395  0.55498352  0.33371408    -0.08200
C1243       C  0.69056979  0.51781240  0.32464154     0.62200
H1244       H  0.75226696  0.53624953  0.35386466     0.12900
H1245       H  0.67740047  0.64066215  0.32438608     0.12900
C1246       C  0.73250580  0.66403773  0.35256660     0.62400
F1247       F  0.71531707  0.49194719  0.33544768    -0.22800
F1248       F  0.68633214  0.51485108  0.28790157    -0.20100
F1249       F  0.65815912  0.51109797  0.34183739    -0.19800
F1250       F  0.72990287  0.67846418  0.31843424    -0.19800
F1251       F  0.76391333  0.67528308  0.36625056    -0.20100
F1252       F  0.70470647  0.67905755  0.37297940    -0.22800
C1253       C  0.75799528  0.54319244  0.42413948    -0.05600
C1254       C  0.78917113  0.55221908  0.40379633     0.00300
C1255       C  0.81885688  0.52643337  0.40526871    -0.08300
C1256       C  0.81227770  0.49192240  0.41766266    -0.05700
C1257       C  0.78053132  0.48334408  0.43563687     0.00300
C1258       C  0.75290557  0.50957036  0.43952704    -0.08200
C1259       C  0.71727418  0.50173082  0.45810590     0.62200
H1260       H  0.73649873  0.56282090  0.42686706     0.12900
H1261       H  0.83405353  0.47211430  0.41678023     0.12900
C1262       C  0.85893213  0.53255319  0.39999841     0.62400
F1263       F  0.69206092  0.52913994  0.45405072    -0.22800
F1264       F  0.72261896  0.49671273  0.49447272    -0.20100
F1265       F  0.70299520  0.47155469  0.44344234    -0.19800
F1266       F  0.86659488  0.56712375  0.39511686    -0.19800
F1267       F  0.87246411  0.51299710  0.37125698    -0.20100
F1268       F  0.87725677  0.52178385  0.43057123    -0.22800
C1269       C  0.87288018  0.59347295  0.32146312    -0.05600
C1270       C  0.87587841  0.63122263  0.31910152     0.00300
C1271       C  0.84219489  0.64881536  0.32308021    -0.08300
C1272       C  0.82307950  0.63676532  0.35258402    -0.05700
C1273       C  0.81648176  0.60052355  0.35656475     0.00300
C1274       C  0.83872645  0.57871311  0.33265716    -0.08200
C1275       C  0.82499316  0.54669553  0.31263888     0.62200
H1276       H  0.89519444  0.57609189  0.31370126     0.12900
H1277       H  0.81848081  0.65500752  0.37393493     0.12900
C1278       C  0.81840019  0.65720673  0.29090382     0.62400
F1279       F  0.79711860  0.55756620  0.29045131    -0.22800
F1280       F  0.81232368  0.52075093  0.33489921    -0.20100
F1281       F  0.85206661  0.53154137  0.29133368    -0.19800
F1282       F  0.83792314  0.66581052  0.26065198    -0.19800
F1283       F  0.79576462  0.68570716  0.29915053    -0.20100
F1284       F  0.79727505  0.62869127  0.28262098    -0.22800
C1285       C  0.92881716  0.68300441  0.38188122    -0.05600
C1286       C  0.90610069  0.68307601  0.35127349     0.00300
C1287       C  0.87481874  0.70547216  0.35622960    -0.08300
C1288       C  0.85874479  0.70640908  0.39041267    -0.05700
C1289       C  0.87816110  0.70186338  0.42294356     0.00300
C1290       C  0.91659044  0.69401904  0.41732162    -0.08200
C1291       C  0.94658888  0.70125376  0.44411553     0.62200
H1292       H  0.95642865  0.67390958  0.37792232     0.12900
H1293       H  0.83062910  0.71486762  0.39181456     0.12900
C1294       C  0.86221243  0.73442142  0.33008885     0.62400
F1295       F  0.97926733  0.68582840  0.43338211    -0.22800
F1296       F  0.93989644  0.68836741  0.47783405    -0.20100
F1297       F  0.95158175  0.73731254  0.44599538    -0.19800
F1298       F  0.85414162  0.72155374  0.29676645    -0.19800
F1299       F  0.88891201  0.75911780  0.32659029    -0.20100
F1300       F  0.83156949  0.75250241  0.34263671    -0.22800
C1301       C  0.92336981  0.70776779  0.27782869    -0.05600
C1302       C  0.91191948  0.67240486  0.28038780     0.00300
C1303       C  0.90975208  0.65328598  0.24666302    -0.08300
C1304       C  0.90911848  0.67271005  0.21438004    -0.05700
C1305       C  0.91444654  0.70905478  0.21332260     0.00300
C1306       C  0.92381469  0.72672605  0.24530276    -0.08200
C1307       C  0.93518640  0.76514677  0.24528411     0.62200
H1308       H  0.93321344  0.72032288  0.30168744     0.12900
H1309       H  0.90377038  0.65944820  0.18924510     0.12900
C1310       C  0.90762050  0.61306155  0.24228762     0.62400
F1311       F  0.94908295  0.77511167  0.27805527    -0.22800
F1312       F  0.90563585  0.78711083  0.23824377    -0.20100
F1313       F  0.96169744  0.77010665  0.21942120    -0.19800
F1314       F  0.87272350  0.60230414  0.24824161    -0.19800
F1315       F  0.93115755  0.59509547  0.26459986    -0.20100
F1316       F  0.91723465  0.60249126  0.20776052    -0.22800
C1317       C  0.97847121  0.64284004  0.29863759    -0.05600
C1318       C  0.94914694  0.63362602  0.32210944     0.00300
C1319       C  0.95833714  0.60712430  0.34834775    -0.08300
C1320       C  0.99145664  0.58792143  0.34560460    -0.05700
C1321       C  0.01790374  0.59546019  0.31992202     0.00300
C1322       C  0.01155886  0.62383531  0.29611121    -0.08200
C1323       C  0.03901620  0.63375968  0.26727475     0.62200
H1324       H  0.97640242  0.66554326  0.28149521     0.12900
H1325       H  0.99761555  0.56752794  0.36533652     0.12900
C1326       C  0.93819935  0.60042364  0.38282426     0.62400
F1327       F  0.02551691  0.65930907  0.24392235    -0.22800
F1328       F  0.04854588  0.60419449  0.24703851    -0.20100
F1329       F  0.06946653  0.64706871  0.28312518    -0.19800
F1330       F  0.93403404  0.56439956  0.38727490    -0.19800
F1331       F  0.90495028  0.61719608  0.38431478    -0.20100
F1332       F  0.95870240  0.61259121  0.41097576    -0.22800
C1333       C  0.48049971  0.90780017  0.70709832    -0.05600
C1334       C  0.45671247  0.90929247  0.67703575     0.00300
C1335       C  0.46773577  0.93232465  0.64801570    -0.08300
C1336       C  0.50034572  0.95063736  0.65071940    -0.05700
C1337       C  0.52350215  0.94743738  0.68018338     0.00300
C1338       C  0.51295316  0.92607675  0.70941046    -0.08200
C1339       C  0.53523670  0.92247837  0.74358807     0.62200
H1340       H  0.47442579  0.89191072  0.73006567     0.12900
H1341       H  0.50812497  0.96771455  0.62865407     0.12900
C1342       C  0.44831248  0.93925396  0.61280040     0.62400
F1343       F  0.51864426  0.90206756  0.76961685    -0.22800
F1344       F  0.54025400  0.95554378  0.75844553    -0.20100
F1345       F  0.56834405  0.90642889  0.73564948    -0.19800
F1346       F  0.41753483  0.92054491  0.60948769    -0.19800
F1347       F  0.47102832  0.93061944  0.58434506    -0.20100
F1348       F  0.43920714  0.97482235  0.60965391    -0.22800
C1349       C  0.40441949  0.88682189  0.74661703    -0.05600
C1350       C  0.41866561  0.86720752  0.71681854     0.00300
C1351       C  0.43372495  0.83239486  0.72526300    -0.08300
C1352       C  0.42567708  0.81735757  0.75897469    -0.05700
C1353       C  0.41027770  0.83684922  0.78737927     0.00300
C1354       C  0.39958028  0.87244343  0.78118892    -0.08200
C1355       C  0.38225472  0.89523499  0.81048619     0.62200
H1356       H  0.39744279  0.91448367  0.74292949     0.12900
H1357       H  0.43421198  0.79030136  0.76455335     0.12900
C1358       C  0.46279925  0.81223507  0.70339723     0.62400
F1359       F  0.37034584  0.92785990  0.79761703    -0.22800
F1360       F  0.40709466  0.90119780  0.83717813    -0.20100
F1361       F  0.35267608  0.87831145  0.82480574    -0.19800
F1362       F  0.45023325  0.80111643  0.67102184    -0.19800
F1363       F  0.47551479  0.78192024  0.72063503    -0.20100
F1364       F  0.49231865  0.83313761  0.69865290    -0.22800
C1365       C  0.42145238  0.83426742  0.58638708    -0.05600
C1366       C  0.38572447  0.82199075  0.58835270     0.00300
C1367       C  0.37580545  0.81319643  0.62402531    -0.08300
C1368       C  0.38529317  0.83733202  0.65090684    -0.05700
C1369       C  0.41581483  0.85911673  0.64767865     0.00300
C1370       C  0.43834792  0.85050695  0.61642052    -0.08200
C1371       C  0.47971614  0.84957121  0.61415264     0.62200
H1372       H  0.43702017  0.82992715  0.56216438     0.12900
H1373       H  0.37318333  0.83388470  0.67699357     0.12900
C1374       C  0.37755376  0.77450064  0.63637020     0.62400
F1375       F  0.49150965  0.81454853  0.61261775    -0.22800
F1376       F  0.49700238  0.86470746  0.64227771    -0.20100
F1377       F  0.49162559  0.86579050  0.58326055    -0.19800
F1378       F  0.35592138  0.75277972  0.61697423    -0.19800
F1379       F  0.36700176  0.77144278  0.67203600    -0.20100
F1380       F  0.41259835  0.76143771  0.63283071    -0.22800
C1381       C  0.29708021  0.79275211  0.54931618    -0.05600
C1382       C  0.33539530  0.79079946  0.55270514     0.00300
C1383       C  0.35189946  0.75635907  0.54606441    -0.08300
C1384       C  0.32999561  0.72633524  0.54639011    -0.05700
C1385       C  0.29253230  0.72870305  0.55130308     0.00300
C1386       C  0.27537357  0.76267067  0.55059965    -0.08200
C1387       C  0.23443232  0.76772363  0.55183375     0.62200
H1388       H  0.28362352  0.81836542  0.54761133     0.12900
H1389       H  0.34280023  0.70025322  0.54400577     0.12900
C1390       C  0.39173530  0.74762787  0.53912037     0.62400
F1391       F  0.22367178  0.80248495  0.54518233    -0.22800
F1392       F  0.22151319  0.75882396  0.58554339    -0.20100
F1393       F  0.21876564  0.74670360  0.52614580    -0.19800
F1394       F  0.41358399  0.77632440  0.53814348    -0.19800
F1395       F  0.39529390  0.73073022  0.50624709    -0.20100
F1396       F  0.40440051  0.72471697  0.56546062    -0.22800
C1397       C  0.35405251  0.81948567  0.48708477    -0.05600
C1398       C  0.37261147  0.83366783  0.51719326     0.00300
C1399       C  0.40337863  0.85409731  0.50700634    -0.08300
C1400       C  0.42032628  0.84813524  0.47355718    -0.05700
C1401       C  0.40376113  0.83011829  0.44561974     0.00300
C1402       C  0.36876675  0.81711725  0.45198377    -0.08200
C1403       C  0.34635516  0.80144036  0.42217429     0.62200
H1404       H  0.32704790  0.81028172  0.49064520     0.12900
H1405       H  0.44547966  0.86136376  0.46802283     0.12900
C1406       C  0.41607975  0.88732617  0.52492322     0.62400
F1407       F  0.31290047  0.79066624  0.43439100    -0.22800
F1408       F  0.36418982  0.77210781  0.40766436    -0.20100
F1409       F  0.34050516  0.82662901  0.39572007    -0.19800
F1410       F  0.45258127  0.88433870  0.53176921    -0.19800
F1411       F  0.39761014  0.89482445  0.55589564    -0.20100
F1412       F  0.41094212  0.91565099  0.50179336    -0.22800
C1413       C  0.29523169  0.89155806  0.61569439    -0.05600
C1414       C  0.29848595  0.92467266  0.59885231     0.00300
C1415       C  0.31598513  0.92373997  0.56403549    -0.08300
C1416       C  0.32772801  0.89019822  0.54966302    -0.05700
C1417       C  0.33008013  0.85829070  0.57005714     0.00300
C1418       C  0.30881153  0.85902823  0.60285679    -0.08200
C1419       C  0.29493898  0.82867705  0.62641929     0.62200
H1420       H  0.27960576  0.89092731  0.64013923     0.12900
H1421       H  0.33802786  0.88973050  0.52257569     0.12900
C1422       C  0.32497533  0.95639419  0.54147660     0.62400
F1423       F  0.30460655  0.83415401  0.66178486    -0.22800
F1424       F  0.30613226  0.79526915  0.61765295    -0.20100
F1425       F  0.25762098  0.82899428  0.62496313    -0.19800
F1426       F  0.34359380  0.98058130  0.56134406    -0.19800
F1427       F  0.29419834  0.97193892  0.52753570    -0.20100
F1428       F  0.34679243  0.94801285  0.51218627    -0.22800
C1429       C  0.35641232  0.96108743  0.64487196    -0.05600
C1430       C  0.32058401  0.95107385  0.65394975     0.00300
C1431       C  0.31984219  0.92464048  0.68248690    -0.08300
C1432       C  0.35123906  0.90287741  0.68755522    -0.05700
C1433       C  0.38607476  0.91385580  0.67705057     0.00300
C1434       C  0.38612004  0.94975004  0.66571591    -0.08200
C1435       C  0.40195117  0.97868556  0.68867221     0.62200
H1436       H  0.36193455  0.97950943  0.62360474     0.12900
H1437       H  0.34870244  0.87898303  0.70291287     0.12900
C1438       C  0.28999385  0.92088719  0.71092356     0.62400
F1439       F  0.41594514  0.00495482  0.66717923    -0.22800
F1440       F  0.42857090  0.96635710  0.71144090    -0.20100
F1441       F  0.37467636  0.99376105  0.70977352    -0.19800
F1442       F  0.25912292  0.90661844  0.69733272    -0.19800
F1443       F  0.28215856  0.95342515  0.72634214    -0.20100
F1444       F  0.30102633  0.89884517  0.73876729    -0.22800
C1445       C  0.18932579  0.94011531  0.66272347    -0.05600
C1446       C  0.18697424  0.96726057  0.68791360     0.00300
C1447       C  0.21576958  0.99045141  0.69128853    -0.08300
C1448       C  0.24705369  0.98394052  0.67055052    -0.05700
C1449       C  0.25103846  0.95630157  0.64457789     0.00300
C1450       C  0.21940836  0.93425634  0.63961844    -0.08200
C1451       C  0.21008145  0.90571237  0.61176035     0.62200
H1452       H  0.16597513  0.92342227  0.66039816     0.12900
H1453       H  0.26958529  0.00084821  0.67520602     0.12900
C1454       C  0.21310176  0.02300575  0.71534857     0.62400
F1455       F  0.17932139  0.91701614  0.59367616    -0.22800
F1456       F  0.20190124  0.87485203  0.62983734    -0.20100
F1457       F  0.23488996  0.89680234  0.58566422    -0.19800
F1458       F  0.21049447  0.01296553  0.75096895    -0.19800
F1459       F  0.18287766  0.04327044  0.70629288    -0.20100
F1460       F  0.24298762  0.04415212  0.71170162    -0.22800
C1461       C  0.30949221  0.02334468  0.62083002    -0.05600
C1462       C  0.28793133  0.99587571  0.60655891     0.00300
C1463       C  0.26150588  0.00818598  0.58042971    -0.08300
C1464       C  0.26421893  0.04230364  0.56525875    -0.05700
C1465       C  0.28961425  0.06644834  0.57614885     0.00300
C1466       C  0.31175699  0.05755960  0.60549058    -0.08200
C1467       C  0.33575762  0.08500859  0.62209998     0.62200
H1468       H  0.32338704  0.01911359  0.64573522     0.12900
H1469       H  0.24569088  0.05104494  0.54452785     0.12900
C1470       C  0.22841318  0.98814662  0.56893147     0.62400
F1471       F  0.35296755  0.07237863  0.65255946    -0.22800
F1472       F  0.31495829  0.11451896  0.63170303    -0.20100
F1473       F  0.36205240  0.09477439  0.59767292    -0.19800
F1474       F  0.20248455  0.98980618  0.59581338    -0.19800
F1475       F  0.23765738  0.95395505  0.56057786    -0.20100
F1476       F  0.21252453  0.00223534  0.53836078    -0.22800
loop_ 
_geom_bond_atom_site_label_1 
_geom_bond_atom_site_label_2 
_geom_bond_distance 
_geom_bond_site_symmetry_2 
_ccdc_geom_bond_type 
C1         C1414   1.586       .  S
C1         C1430   1.616       .  S
C1         C1449   1.583       .  S
C1         C1462   1.614       .  S
C2         C1366   1.604       .  S
C2         C1382   1.581       .  S
C2         C1398   1.616       .  S
C2         C1417   1.606       .  S
C3         C1334   1.589       .  S
C3         C1350   1.600       .  S
C3         C1369   1.596       .  S
C3         C1433   1.607       .  S
C4         C1270   1.595       .  S
C4         C1286   1.630       .  S
C4         C1302   1.573       .  S
C4         C1318   1.601       .  S
C5         C1222   1.598       .  S
C5         C1238   1.619       .  S
C5         C1254   1.607       .  S
C5         C1273   1.585       .  S
C6         C1190   1.585       .  S
C6         C1206   1.621       .  S
C6         C1225   1.583       .  S
C6         C1289   1.626       .  S
C7         C1126   1.613       .  S
C7         C1142   1.609       .  S
C7         C1158   1.600       .  S
C7         C1177   1.599       .  S
C8         C1078   1.588       .  S
C8         C1094   1.601       .  S
C8         C1110   1.601       .  S
C8         C1129   1.614       .  S
C9         C1046   1.572       .  S
C9         C1062   1.600       .  S
C9         C1081   1.587       .  S
C9         C1145   1.572       .  S
C10         C985   1.578       .  S
C10        C1001   1.613       .  S
C10        C1014   1.586       .  S
C10        C1033   1.602       .  S
C11         C934   1.594       .  S
C11         C950   1.577       .  S
C11         C966   1.606       .  S
C11         C982   1.597       .  S
C12         C902   1.596       .  S
C12         C918   1.596       .  S
C12         C937   1.604       .  S
C12         C998   1.617       .  S
In13         O15   2.236       .  S
In13         O16   2.236       .  S
In13         O24   2.232       .  S
In13         O18   2.286   1_545  S
In13         O20   2.257       .  S
In13         O21   2.243   1_545  S
In13         O22   2.262       .  S
In13         O25   2.252   1_545  S
C14          O20   1.260       .  A
C14          O22   1.259       .  A
C14         C886   1.500       .  S
O15          C23   1.261       .  A
O16          C23   1.259       .  A
C17          O24   1.257   1_565  A
C17          O18   1.264       .  A
C17         C854   1.495       .  S
C19          O21   1.259       .  A
C19          O25   1.260       .  A
C19        C1337   1.494       .  S
C23         C870   1.481       .  S
In26         O28   2.257       .  S
In26         O29   2.247       .  S
In26         O37   2.241       .  S
In26         O31   2.281       .  S
In26         O33   2.270       .  S
In26         O34   2.233       .  S
In26         O35   2.249       .  S
In26         O38   2.294       .  S
C27          O33   1.263       .  A
C27          O35   1.262       .  A
C27         C841   1.502       .  S
O28          C36   1.258       .  A
O29          C36   1.261       .  A
C30          O37   1.254       .  A
C30          O31   1.262       .  A
C30         C822   1.499       .  S
C32          O34   1.256       .  A
C32          O38   1.264       .  A
C32        C1161   1.494       .  S
C36         C873   1.490       .  S
In39         O41   2.238       .  S
In39         O42   2.264       .  S
In39         O50   2.265       .  S
In39         O44   2.287       .  S
In39         O46   2.277       .  S
In39         O47   2.236       .  S
In39         O48   2.250       .  S
In39         O51   2.274       .  S
C40          O46   1.262       .  A
C40          O48   1.259       .  A
C40         C809   1.495   1_545  S
O41          C49   1.260       .  A
O42          C49   1.263       .  A
C43          O50   1.257       .  A
C43          O44   1.259       .  A
C43         C774   1.500       .  S
C45          O47   1.258       .  A
C45          O51   1.263       .  A
C45        C1030   1.485       .  S
C49         C790   1.488       .  S
In52         O54   2.247       .  S
In52         O55   2.249       .  S
In52         O63   2.251       .  S
In52         O57   2.280       .  S
In52         O59   2.282       .  S
In52         O60   2.276       .  S
In52         O61   2.237       .  S
In52         O64   2.257       .  S
C53          O59   1.264       .  A
C53          O61   1.257       .  A
C53         C758   1.500       .  S
O54          C62   1.261       .  A
O55          C62   1.260       .  A
C56          O63   1.259       .  A
C56          O57   1.264       .  A
C56         C838   1.500       .  S
C58          O60   1.260       .  A
C58          O64   1.260       .  A
C58        C1465   1.492       .  S
C62         C793   1.493       .  S
In65         O67   2.225       .  S
In65         O68   2.234       .  S
In65         O76   2.251       .  S
In65         O70   2.265       .  S
In65         O72   2.262       .  S
In65         O73   2.233       .  S
In65         O74   2.264       .  S
In65         O77   2.275       .  S
C66          O72   1.258       .  A
C66          O74   1.259       .  A
C66         C857   1.500       .  S
O67          C75   1.259       .  A
O68          C75   1.262       .  A
C69          O76   1.259       .  A
C69          O70   1.263       .  A
C69         C726   1.500       .  S
C71          O73   1.257       .  A
C71          O77   1.262       .  A
C71        C1209   1.489       .  S
C75         C742   1.483       .  S
In78         O80   2.239       .  S
In78         O81   2.222       .  S
In78         O89   2.266       .  S
In78         O83   2.276       .  S
In78         O85   2.276       .  S
In78         O86   2.223       .  S
In78         O87   2.230       .  S
In78         O90   2.272       .  S
C79          O85   1.264       .  A
C79          O87   1.257       .  A
C79         C710   1.499       .  S
O80          C88   1.259       .  A
O81          C88   1.263       .  A
C82          O89   1.257       .  A
C82          O83   1.259       .  A
C82         C806   1.500       .  S
C84          O86   1.260       .  A
C84          O90   1.263       .  A
C84        C1401   1.497       .  S
C88         C745   1.486       .  S
In91         O93   2.254   1_655  S
In91         O94   2.210   1_655  S
In91        O102   2.230       .  S
In91         O96   2.281       .  S
In91         O98   2.281       .  S
In91         O99   2.236       .  S
In91        O100   2.249       .  S
In91        O103   2.244       .  S
C92          O98   1.261       .  A
C92         O100   1.255       .  A
C92         C697   1.497       .  S
O93         C101   1.264       .  A
O94         C101   1.255       .  A
C95         O102   1.257       .  A
C95          O96   1.267       .  A
C95         C662   1.491       .  S
C97          O99   1.257       .  A
C97         O103   1.264       .  A
C97        C1193   1.480       .  S
C101        C678   1.478       .  S
In104       O106   2.221       .  S
In104       O107   2.236       .  S
In104       O115   2.244       .  S
In104       O109   2.279       .  S
In104       O111   2.277       .  S
In104       O112   2.228       .  S
In104       O113   2.223       .  S
In104       O116   2.262       .  S
C105        O111   1.265       .  A
C105        O113   1.254       .  A
C105        C649   1.493       .  S
O106        C114   1.260       .  A
O107        C114   1.259       .  A
C108        O115   1.255       .  A
C108        O109   1.262       .  A
C108        C630   1.494       .  S
C110        O112   1.257       .  A
C110        O116   1.267       .  A
C110       C1385   1.491       .  S
C114        C681   1.482       .  S
In117       O119   2.217       .  S
In117       O120   2.239       .  S
In117       O128   2.240       .  S
In117       O122   2.281       .  S
In117       O124   2.265   1_455  S
In117       O125   2.238       .  S
In117       O126   2.255   1_455  S
In117       O129   2.273       .  S
C118        O124   1.260       .  A
C118        O126   1.260       .  A
C118        C614   1.494       .  S
O119        C127   1.262       .  A
O120        C127   1.260       .  A
C121        O128   1.256       .  A
C121        O122   1.261       .  A
C121        C761   1.489       .  S
C123        O125   1.254       .  A
C123        O129   1.265       .  A
C123        C921   1.499       .  S
C127        C601   1.480       .  S
In130       O132   2.241       .  S
In130       O133   2.213       .  S
In130       O141   2.267       .  S
In130       O135   2.261       .  S
In130       O137   2.274       .  S
In130       O138   2.243       .  S
In130       O139   2.242       .  S
In130       O142   2.248       .  S
C131        O137   1.264       .  A
C131        O139   1.255       .  A
C131        C582   1.499       .  S
O132        C140   1.263       .  A
O133        C140   1.258       .  A
C134        O141   1.262       .  A
C134        O135   1.253       .  A
C134        C646   1.499       .  S
C136        O138   1.260       .  A
C136        O142   1.262       .  A
C136       C1321   1.487       .  S
C140        C598   1.482       .  S
In143       O145   2.233       .  S
In143       O146   2.222       .  S
In143       O154   2.254       .  S
In143       O148   2.274       .  S
In143       O150   2.250       .  S
In143       O151   2.255       .  S
In143       O152   2.276       .  S
In143       O155   2.252       .  S
C144        O150   1.258       .  A
C144        O152   1.261       .  A
C144        C665   1.500       .  S
O145        C153   1.259       .  A
O146        C153   1.261       .  A
C147        O154   1.258       .  A
C147        O148   1.263       .  A
C147        C553   1.502       .  S
C149        O151   1.257       .  A
C149        O155   1.262       .  A
C149       C1113   1.482       .  S
C153        C566   1.483       .  S
In156       O158   2.241       .  S
In156       O159   2.235       .  S
In156       O167   2.245       .  S
In156       O161   2.298       .  S
In156       O163   2.264       .  S
In156       O164   2.244       .  S
In156       O165   2.265       .  S
In156       O168   2.265       .  S
C157        O163   1.261       .  A
C157        O165   1.255       .  A
C157        C825   1.489       .  S
O158        C166   1.259       .  A
O159        C166   1.261       .  A
C160        O167   1.257       .  A
C160        O161   1.265       .  A
C160        C617   1.506       .  S
C162        O164   1.258       .  A
C162        O168   1.265       .  A
C162       C1257   1.486       .  S
C166        C569   1.484       .  S
In169       O171   2.230   1_554  S
In169       O172   2.211   1_554  S
In169       O180   2.264       .  S
In169       O174   2.234       .  S
In169       O176   2.268       .  S
In169       O177   2.222       .  S
In169       O178   2.226   1_554  S
In169       O181   2.284       .  S
C170        O176   1.264   1_556  A
C170        O178   1.255       .  A
C170        C534   1.485       .  S
O171        C179   1.263       .  A
O172        C179   1.260       .  A
C173        O180   1.263       .  A
C173        O174   1.252       .  A
C173        C505   1.490       .  S
C175        O177   1.255       .  A
C175        O181   1.263       .  A
C175       C1017   1.489       .  S
C179        C518   1.466       .  S
In182       O184   2.222       .  S
In182       O185   2.237       .  S
In182       O193   2.280       .  S
In182       O187   2.237       .  S
In182       O189   2.264   1_565  S
In182       O190   2.253       .  S
In182       O191   2.243   1_565  S
In182       O194   2.237       .  S
C183        O189   1.260       .  A
C183        O191   1.256       .  A
C183        C489   1.493       .  S
O184        C192   1.261       .  A
O185        C192   1.262       .  A
C186        O193   1.263       .  A
C186        O187   1.257       .  A
C186        C694   1.498       .  S
C188        O190   1.259       .  A
C188        O194   1.261       .  A
C188       C1446   1.477       .  S
C192        C521   1.468       .  S
In195       O197   2.272       .  S
In195       O198   2.225       .  S
In195       O206   2.279   1_655  S
In195       O200   2.260       .  S
In195       O202   2.285       .  S
In195       O203   2.249       .  S
In195       O204   2.255       .  S
In195       O207   2.263   1_655  S
C196        O202   1.262       .  A
C196        O204   1.258       .  A
C196        C550   1.501       .  S
O197        C205   1.263       .  A
O198        C205   1.258       .  A
C199        O206   1.258       .  A
C199        O200   1.259   1_455  A
C199        C486   1.501       .  S
C201        O203   1.258   1_455  A
C201        O207   1.264       .  A
C201        C953   1.490       .  S
C205        C470   1.492       .  S
In208       O210   2.241       .  S
In208       O211   2.253       .  S
In208       O219   2.287       .  S
In208       O213   2.253       .  S
In208       O215   2.264       .  S
In208       O216   2.209       .  S
In208       O217   2.268       .  S
In208       O220   2.270       .  S
C209        O215   1.262       .  A
C209        O217   1.258       .  A
C209        C457   1.505   1_556  S
O210        C218   1.262       .  A
O211        C218   1.261       .  A
C212        O219   1.260       .  A
C212        O213   1.258       .  A
C212        C889   1.503       .  S
C214        O216   1.258       .  A
C214        O220   1.263       .  A
C214       C1049   1.484       .  S
C218        C473   1.488       .  S
In221       O223   2.220   1_545  S
In221       O224   2.240   1_545  S
In221       O232   2.234       .  S
In221       O226   2.295       .  S
In221       O228   2.259       .  S
In221       O229   2.239       .  S
In221       O230   2.264       .  S
In221       O233   2.276       .  S
C222        O228   1.261       .  A
C222        O230   1.260       .  A
C222        C729   1.502       .  S
O223        C231   1.256       .  A
O224        C231   1.263       .  A
C225        O232   1.257       .  A
C225        O226   1.265       .  A
C225        C454   1.499       .  S
C227        O229   1.255       .  A
C227        O233   1.265       .  A
C227        C905   1.502       .  S
C231        C438   1.469       .  S
In234       O236   2.218       .  S
In234       O237   2.209       .  S
In234       O245   2.267       .  S
In234       O239   2.243       .  S
In234       O241   2.261       .  S
In234       O242   2.218       .  S
In234       O243   2.228       .  S
In234       O246   2.260       .  S
C235        O241   1.264       .  A
C235        O243   1.253       .  A
C235        C502   1.488   1_655  S
O236        C244   1.261       .  A
O237        C244   1.263       .  A
C238        O245   1.262       .  A
C238        O239   1.255       .  A
C238        C425   1.492       .  S
C240        O242   1.254       .  A
C240        O246   1.265       .  A
C240       C1305   1.482       .  S
C244        C441   1.471       .  S
In247       O249   2.220   1_556  S
In247       O250   2.241   1_556  S
In247       O258   2.247       .  S
In247       O252   2.265       .  S
In247       O254   2.281       .  S
In247       O255   2.236       .  S
In247       O256   2.244   1_556  S
In247       O259   2.264       .  S
C248        O254   1.263   1_554  A
C248        O256   1.258       .  A
C248        C422   1.500       .  S
O249        C257   1.259       .  A
O250        C257   1.262       .  A
C251        O258   1.253       .  A
C251        O252   1.262       .  A
C251        C393   1.496       .  S
C253        O255   1.259       .  A
C253        O259   1.264       .  A
C253       C1097   1.475       .  S
C257        C409   1.469       .  S
In260       O262   2.224       .  S
In260       O263   2.237       .  S
In260       O271   2.253       .  S
In260       O265   2.273       .  S
In260       O267   2.285       .  S
In260       O268   2.237       .  S
In260       O269   2.235       .  S
In260       O272   2.249       .  S
C261        O267   1.266       .  A
C261        O269   1.255       .  A
C261        C374   1.502       .  S
O262        C270   1.258       .  A
O263        C270   1.262       .  A
C264        O271   1.256       .  A
C264        O265   1.260       .  A
C264        C713   1.497       .  S
C266        O268   1.261       .  A
C266        O272   1.262       .  A
C266       C1241   1.485       .  S
C270        C406   1.484       .  S
In273       O275   2.245       .  S
In273       O276   2.231       .  S
In273       O284   2.303       .  S
In273       O278   2.232       .  S
In273       O280   2.269       .  S
In273       O281   2.222       .  S
In273       O282   2.261       .  S
In273       O285   2.270       .  S
C274        O280   1.261       .  A
C274        O282   1.259       .  A
C274        C777   1.503       .  S
O275        C283   1.264       .  A
O276        C283   1.259       .  A
C277        O284   1.263       .  A
C277        O278   1.252       .  A
C277        C377   1.493       .  S
C279        O281   1.256       .  A
C279        O285   1.263       .  A
C279       C1065   1.484       .  S
C283        C361   1.489       .  S
In286       O288   2.229       .  S
In286       O289   2.254       .  S
In286       O297   2.293       .  S
In286       O291   2.229       .  S
In286       O293   2.262       .  S
In286       O294   2.281       .  S
In286       O295   2.264       .  S
In286       O298   2.241       .  S
C287        O293   1.262       .  A
C287        O295   1.262       .  A
C287        C342   1.506   1_554  S
O288        C296   1.259       .  A
O289        C296   1.261       .  A
C290        O297   1.261       .  A
C290        O291   1.250       .  A
C290        C585   1.498       .  S
C292        O294   1.261       .  A
C292        O298   1.260       .  A
C292        C969   1.502       .  S
C296        C358   1.489       .  S
In299       O301   2.218       .  S
In299       O302   2.228       .  S
In299       O310   2.286       .  S
In299       O304   2.223       .  S
In299       O306   2.277       .  S
In299       O307   2.230       .  S
In299       O308   2.262       .  S
In299       O311   2.273       .  S
C300        O306   1.262       .  A
C300        O308   1.257       .  A
C300        C390   1.503       .  S
O301        C309   1.258       .  A
O302        C309   1.262       .  A
C303        O310   1.266       .  A
C303        O304   1.252       .  A
C303        C537   1.493       .  S
C305        O307   1.258       .  A
C305        O311   1.263       .  A
C305       C1353   1.494       .  S
C309        C326   1.481       .  S
In312       O314   2.230       .  S
In312       O315   2.239       .  S
In312       O323   2.309       .  S
In312       O317   2.260       .  S
In312       O319   2.251       .  S
In312       O320   2.242       .  S
In312       O321   2.285       .  S
In312       O324   2.283       .  S
C313        O319   1.255       .  A
C313        O321   1.266       .  A
C313        C633   1.503       .  S
O314        C322   1.264       .  A
O315        C322   1.260       .  A
C316        O323   1.263       .  A
C316        O317   1.255       .  A
C316        C345   1.508       .  S
C318        O320   1.257       .  A
C318        O324   1.265       .  A
C318       C1174   1.498       .  S
C322        C329   1.483       .  S
C325        C326   1.404       .  A
C325        C330   1.403       .  A
C325        H332   1.082       .  S
C326        C327   1.420       .  A
C327        C334   1.523       .  S
C327        C328   1.404       .  A
C328        C329   1.406       .  A
C328        H333   1.082       .  S
C329        C330   1.422       .  A
C330        C331   1.522       .  S
C331        F335   1.386       .  S
C331        F336   1.383       .  S
C331        F337   1.383       .  S
C334        F338   1.384       .  S
C334        F339   1.384       .  S
C334        F340   1.384       .  S
C341        C342   1.409       .  A
C341        C346   1.415       .  A
C341        H348   1.082       .  S
C342        C343   1.424       .  A
C343        C350   1.521       .  S
C343        C344   1.415       .  A
C344        C345   1.410       .  A
C344        H349   1.082       .  S
C345        C346   1.422       .  A
C346        C347   1.518       .  S
C347        F351   1.385       .  S
C347        F352   1.383       .  S
C347        F353   1.382       .  S
C350        F354   1.384   1_556  S
C350        F355   1.383       .  S
C350        F356   1.384       .  S
C357        C358   1.405       .  A
C357        C362   1.404       .  A
C357        H364   1.082       .  S
C358        C359   1.420       .  A
C359        C366   1.520       .  S
C359        C360   1.408       .  A
C360        C361   1.406       .  A
C360        H365   1.082       .  S
C361        C362   1.422       .  A
C362        C363   1.523       .  S
C363        F367   1.385       .  S
C363        F368   1.383       .  S
C363        F369   1.383       .  S
C366        F370   1.383       .  S
C366        F371   1.383       .  S
C366        F372   1.385       .  S
C373        C374   1.407       .  A
C373        C378   1.411       .  A
C373        H380   1.083       .  S
C374        C375   1.430       .  A
C375        C382   1.521       .  S
C375        C376   1.414       .  A
C376        C377   1.401       .  A
C376        H381   1.083       .  S
C377        C378   1.419       .  A
C378        C379   1.520       .  S
C379        F383   1.384       .  S
C379        F384   1.385       .  S
C379        F385   1.382       .  S
C382        F386   1.384       .  S
C382        F387   1.383       .  S
C382        F388   1.384       .  S
C389        C390   1.409       .  A
C389        C394   1.413       .  A
C389        H396   1.082       .  S
C390        C391   1.425       .  A
C391        C398   1.519       .  S
C391        C392   1.409       .  A
C392        C393   1.402       .  A
C392        H397   1.082       .  S
C393        C394   1.425       .  A
C394        C395   1.523   1_556  S
C395        F399   1.385       .  S
C395        F400   1.384       .  S
C395        F401   1.384       .  S
C398        F402   1.383       .  S
C398        F403   1.383       .  S
C398        F404   1.386       .  S
C405        C406   1.407       .  A
C405        C410   1.402       .  A
C405        H412   1.083       .  S
C406        C407   1.424       .  A
C407        C414   1.521       .  S
C407        C408   1.405       .  A
C408        C409   1.400       .  A
C408        H413   1.083       .  S
C409        C410   1.414       .  A
C410        C411   1.521       .  S
C411        F415   1.384       .  S
C411        F416   1.383       .  S
C411        F417   1.383       .  S
C414        F418   1.384       .  S
C414        F419   1.384       .  S
C414        F420   1.383       .  S
C421        C422   1.410       .  A
C421        C426   1.410       .  A
C421        H428   1.082       .  S
C422        C423   1.423       .  A
C423        C430   1.520   1_554  S
C423        C424   1.411       .  A
C424        C425   1.407       .  A
C424        H429   1.083       .  S
C425        C426   1.417       .  A
C426        C427   1.520       .  S
C427        F431   1.384       .  S
C427        F432   1.384       .  S
C427        F433   1.383       .  S
C430        F434   1.383   1_556  S
C430        F435   1.383       .  S
C430        F436   1.385   1_556  S
C437        C438   1.401       .  A
C437        C442   1.402       .  A
C437        H444   1.084       .  S
C438        C439   1.418       .  A
C439        C446   1.522       .  S
C439        C440   1.400       .  A
C440        C441   1.403       .  A
C440        H445   1.083       .  S
C441        C442   1.417       .  A
C442        C443   1.520       .  S
C443        F447   1.385       .  S
C443        F448   1.384       .  S
C443        F449   1.382       .  S
C446        F450   1.383       .  S
C446        F451   1.383       .  S
C446        F452   1.385       .  S
C453        C454   1.406       .  A
C453        C458   1.408       .  A
C453        H460   1.082       .  S
C454        C455   1.419       .  A
C455        C462   1.519       .  S
C455        C456   1.417       .  A
C456        C457   1.414       .  A
C456        H461   1.082       .  S
C457        C458   1.422       .  A
C458        C459   1.520       .  S
C459        F463   1.384   1_545  S
C459        F464   1.383   1_554  S
C459        F465   1.383       .  S
C462        F466   1.384       .  S
C462        F467   1.383       .  S
C462        F468   1.385       .  S
C469        C470   1.408       .  A
C469        C474   1.412       .  A
C469        H476   1.083       .  S
C470        C471   1.423       .  A
C471        C478   1.521       .  S
C471        C472   1.406       .  A
C472        C473   1.402       .  A
C472        H477   1.082       .  S
C473        C474   1.421       .  A
C474        C475   1.521       .  S
C475        F479   1.384       .  S
C475        F480   1.384       .  S
C475        F481   1.383       .  S
C478        F482   1.383       .  S
C478        F483   1.383       .  S
C478        F484   1.384       .  S
C485        C486   1.409       .  A
C485        C490   1.410       .  A
C485        H492   1.082   1_455  S
C486        C487   1.425       .  A
C487        C494   1.521       .  S
C487        C488   1.411       .  A
C488        C489   1.407       .  A
C488        H493   1.082       .  S
C489        C490   1.417       .  A
C490        C491   1.518       .  S
C491        F495   1.384   1_455  S
C491        F496   1.383   1_455  S
C491        F497   1.384       .  S
C494        F498   1.383       .  S
C494        F499   1.383       .  S
C494        F500   1.386       .  S
C501        C502   1.402       .  A
C501        C506   1.406       .  A
C501        H508   1.083       .  S
C502        C503   1.425       .  A
C503        C510   1.522       .  S
C503        C504   1.407       .  A
C504        C505   1.403       .  A
C504        H509   1.082       .  S
C505        C506   1.424       .  A
C506        C507   1.521   1_554  S
C507        F511   1.385       .  S
C507        F512   1.383       .  S
C507        F513   1.382       .  S
C510        F514   1.383       .  S
C510        F515   1.384   1_455  S
C510        F516   1.385       .  S
C517        C518   1.401       .  A
C517        C522   1.403       .  A
C517        H524   1.083       .  S
C518        C519   1.417       .  A
C519        C526   1.520       .  S
C519        C520   1.399       .  A
C520        C521   1.400       .  A
C520        H525   1.083       .  S
C521        C522   1.417       .  A
C522        C523   1.518       .  S
C523        F527   1.385       .  S
C523        F528   1.382       .  S
C523        F529   1.383       .  S
C526        F530   1.382       .  S
C526        F531   1.383       .  S
C526        F532   1.384   1_565  S
C533        C534   1.401       .  A
C533        C538   1.408       .  A
C533        H540   1.083       .  S
C534        C535   1.420       .  A
C535        C542   1.519       .  S
C535        C536   1.409       .  A
C536        C537   1.404       .  A
C536        H541   1.083       .  S
C537        C538   1.427       .  A
C538        C539   1.522       .  S
C539        F543   1.385       .  S
C539        F544   1.384       .  S
C539        F545   1.383       .  S
C542        F546   1.384   1_556  S
C542        F547   1.383       .  S
C542        F548   1.384       .  S
C549        C550   1.408       .  A
C549        C554   1.413       .  A
C549        H556   1.082       .  S
C550        C551   1.422       .  A
C551        C558   1.520       .  S
C551        C552   1.413       .  A
C552        C553   1.409       .  A
C552        H557   1.082       .  S
C553        C554   1.421       .  A
C554        C555   1.520       .  S
C555        F559   1.384       .  S
C555        F560   1.384       .  S
C555        F561   1.383       .  S
C558        F562   1.384       .  S
C558        F563   1.383   1_655  S
C558        F564   1.385       .  S
C565        C566   1.405       .  A
C565        C570   1.403       .  A
C565        H572   1.082       .  S
C566        C567   1.420       .  A
C567        C574   1.522       .  S
C567        C568   1.405       .  A
C568        C569   1.406       .  A
C568        H573   1.082       .  S
C569        C570   1.420       .  A
C570        C571   1.521       .  S
C571        F575   1.386       .  S
C571        F576   1.383       .  S
C571        F577   1.383       .  S
C574        F578   1.384       .  S
C574        F579   1.383       .  S
C574        F580   1.385       .  S
C581        C582   1.404       .  A
C581        C586   1.409       .  A
C581        H588   1.082       .  S
C582        C583   1.426       .  A
C583        C590   1.520       .  S
C583        C584   1.412       .  A
C584        C585   1.405       .  A
C584        H589   1.083       .  S
C585        C586   1.425       .  A
C586        C587   1.522       .  S
C587        F591   1.384       .  S
C587        F592   1.384       .  S
C587        F593   1.383       .  S
C590        F594   1.384       .  S
C590        F595   1.383       .  S
C590        F596   1.384       .  S
C597        C598   1.406       .  A
C597        C602   1.406       .  A
C597        H604   1.082       .  S
C598        C599   1.421       .  A
C599        C606   1.523       .  S
C599        C600   1.400       .  A
C600        C601   1.402       .  A
C600        H605   1.083       .  S
C601        C602   1.420       .  A
C602        C603   1.521       .  S
C603        F607   1.385       .  S
C603        F608   1.383       .  S
C603        F609   1.384   1_455  S
C606        F610   1.384       .  S
C606        F611   1.383       .  S
C606        F612   1.385       .  S
C613        C614   1.405       .  A
C613        C618   1.413       .  A
C613        H620   1.083       .  S
C614        C615   1.420       .  A
C615        C622   1.522       .  S
C615        C616   1.411       .  A
C616        C617   1.411       .  A
C616        H621   1.082       .  S
C617        C618   1.423       .  A
C618        C619   1.516       .  S
C619        F623   1.385       .  S
C619        F624   1.382       .  S
C619        F625   1.383       .  S
C622        F626   1.383       .  S
C622        F627   1.383       .  S
C622        F628   1.385       .  S
C629        C630   1.402       .  A
C629        C634   1.413       .  A
C629        H636   1.083       .  S
C630        C631   1.423       .  A
C631        C638   1.521       .  S
C631        C632   1.411       .  A
C632        C633   1.405       .  A
C632        H637   1.082       .  S
C633        C634   1.428       .  A
C634        C635   1.520       .  S
C635        F639   1.385       .  S
C635        F640   1.383       .  S
C635        F641   1.383       .  S
C638        F642   1.383       .  S
C638        F643   1.383       .  S
C638        F644   1.384       .  S
C645        C646   1.404       .  A
C645        C650   1.407       .  A
C645        H652   1.082       .  S
C646        C647   1.427       .  A
C647        C654   1.521       .  S
C647        C648   1.412       .  A
C648        C649   1.404       .  A
C648        H653   1.083       .  S
C649        C650   1.423       .  A
C650        C651   1.522       .  S
C651        F655   1.385       .  S
C651        F656   1.383       .  S
C651        F657   1.383       .  S
C654        F658   1.383       .  S
C654        F659   1.383       .  S
C654        F660   1.386       .  S
C661        C662   1.405       .  A
C661        C666   1.409       .  A
C661        H668   1.083       .  S
C662        C663   1.417       .  A
C663        C670   1.519       .  S
C663        C664   1.414       .  A
C664        C665   1.411       .  A
C664        H669   1.082       .  S
C665        C666   1.423       .  A
C666        C667   1.521       .  S
C667        F671   1.385   1_655  S
C667        F672   1.383       .  S
C667        F673   1.384       .  S
C670        F674   1.384       .  S
C670        F675   1.383       .  S
C670        F676   1.384       .  S
C677        C678   1.403       .  A
C677        C682   1.405       .  A
C677        H684   1.083       .  S
C678        C679   1.422       .  A
C679        C686   1.525       .  S
C679        C680   1.401       .  A
C680        C681   1.404       .  A
C680        H685   1.082       .  S
C681        C682   1.421       .  A
C682        C683   1.520       .  S
C683        F687   1.385       .  S
C683        F688   1.383       .  S
C683        F689   1.383       .  S
C686        F690   1.383       .  S
C686        F691   1.384       .  S
C686        F692   1.385       .  S
C693        C694   1.409       .  A
C693        C698   1.408   1_455  A
C693        H700   1.082       .  S
C694        C695   1.420       .  A
C695        C702   1.519       .  S
C695        C696   1.412   1_455  A
C696        C697   1.410       .  A
C696        H701   1.082       .  S
C697        C698   1.418       .  A
C698        C699   1.518       .  S
C699        F703   1.385       .  S
C699        F704   1.382       .  S
C699        F705   1.384       .  S
C702        F706   1.383       .  S
C702        F707   1.384       .  S
C702        F708   1.385       .  S
C709        C710   1.410       .  A
C709        C714   1.409       .  A
C709        H716   1.082       .  S
C710        C711   1.421       .  A
C711        C718   1.520       .  S
C711        C712   1.412       .  A
C712        C713   1.409       .  A
C712        H717   1.082       .  S
C713        C714   1.420       .  A
C714        C715   1.521       .  S
C715        F719   1.385       .  S
C715        F720   1.384       .  S
C715        F721   1.382       .  S
C718        F722   1.384       .  S
C718        F723   1.383       .  S
C718        F724   1.385       .  S
C725        C726   1.408       .  A
C725        C730   1.412       .  A
C725        H732   1.082       .  S
C726        C727   1.420       .  A
C727        C734   1.519       .  S
C727        C728   1.413   1_565  A
C728        C729   1.409       .  A
C728        H733   1.082       .  S
C729        C730   1.424   1_545  A
C730        C731   1.522   1_565  S
C731        F735   1.385   1_545  S
C731        F736   1.384   1_545  S
C731        F737   1.383       .  S
C734        F738   1.384       .  S
C734        F739   1.384       .  S
C734        F740   1.384       .  S
C741        C742   1.406       .  A
C741        C746   1.406       .  A
C741        H748   1.082       .  S
C742        C743   1.420       .  A
C743        C750   1.522       .  S
C743        C744   1.401       .  A
C744        C745   1.405       .  A
C744        H749   1.082       .  S
C745        C746   1.423       .  A
C746        C747   1.522       .  S
C747        F751   1.385       .  S
C747        F752   1.383       .  S
C747        F753   1.384       .  S
C750        F754   1.383       .  S
C750        F755   1.384       .  S
C750        F756   1.385       .  S
C757        C758   1.412       .  A
C757        C762   1.410       .  A
C757        H764   1.082       .  S
C758        C759   1.422       .  A
C759        C766   1.518       .  S
C759        C760   1.410       .  A
C760        C761   1.405       .  A
C760        H765   1.083       .  S
C761        C762   1.417       .  A
C762        C763   1.521       .  S
C763        F767   1.385       .  S
C763        F768   1.384       .  S
C763        F769   1.382       .  S
C766        F770   1.385       .  S
C766        F771   1.383       .  S
C766        F772   1.383       .  S
C773        C774   1.407       .  A
C773        C778   1.412       .  A
C773        H780   1.083       .  S
C774        C775   1.421       .  A
C775        C782   1.520       .  S
C775        C776   1.413       .  A
C776        C777   1.410       .  A
C776        H781   1.082       .  S
C777        C778   1.422       .  A
C778        C779   1.519       .  S
C779        F783   1.384       .  S
C779        F784   1.383       .  S
C779        F785   1.384       .  S
C782        F786   1.383       .  S
C782        F787   1.383       .  S
C782        F788   1.385       .  S
C789        C790   1.406       .  A
C789        C794   1.412       .  A
C789        H796   1.083       .  S
C790        C791   1.419       .  A
C791        C798   1.521       .  S
C791        C792   1.407       .  A
C792        C793   1.407       .  A
C792        H797   1.082       .  S
C793        C794   1.423       .  A
C794        C795   1.521       .  S
C795        F799   1.384       .  S
C795        F800   1.384       .  S
C795        F801   1.384       .  S
C798        F802   1.382       .  S
C798        F803   1.384       .  S
C798        F804   1.384       .  S
C805        C806   1.409       .  A
C805        C810   1.413       .  A
C805        H812   1.083       .  S
C806        C807   1.423       .  A
C807        C814   1.520       .  S
C807        C808   1.411       .  A
C808        C809   1.406       .  A
C808        H813   1.083       .  S
C809        C810   1.418       .  A
C810        C811   1.518       .  S
C811        F815   1.385       .  S
C811        F816   1.382   1_565  S
C811        F817   1.384       .  S
C814        F818   1.384       .  S
C814        F819   1.383       .  S
C814        F820   1.385       .  S
C821        C822   1.408       .  A
C821        C826   1.412       .  A
C821        H828   1.082       .  S
C822        C823   1.427       .  A
C823        C830   1.519       .  S
C823        C824   1.408       .  A
C824        C825   1.399       .  A
C824        H829   1.083       .  S
C825        C826   1.422       .  A
C826        C827   1.520       .  S
C827        F831   1.385       .  S
C827        F832   1.382       .  S
C827        F833   1.384       .  S
C830        F834   1.383       .  S
C830        F835   1.383       .  S
C830        F836   1.385       .  S
C837        C838   1.408       .  A
C837        C842   1.413       .  A
C837        H844   1.083       .  S
C838        C839   1.420       .  A
C839        C846   1.518       .  S
C839        C840   1.411       .  A
C840        C841   1.409       .  A
C840        H845   1.082       .  S
C841        C842   1.423       .  A
C842        C843   1.519       .  S
C843        F847   1.385       .  S
C843        F848   1.383       .  S
C843        F849   1.384       .  S
C846        F850   1.382       .  S
C846        F851   1.383       .  S
C846        F852   1.385       .  S
C853        C854   1.406       .  A
C853        C858   1.409       .  A
C853        H860   1.083   1_565  S
C854        C855   1.418       .  A
C855        C862   1.518       .  S
C855        C856   1.413       .  A
C856        C857   1.411       .  A
C856        H861   1.082       .  S
C857        C858   1.422       .  A
C858        C859   1.520   1_565  S
C859        F863   1.385       .  S
C859        F864   1.383       .  S
C859        F865   1.384       .  S
C862        F866   1.383       .  S
C862        F867   1.383       .  S
C862        F868   1.385       .  S
C869        C870   1.402       .  A
C869        C874   1.406       .  A
C869        H876   1.083       .  S
C870        C871   1.417       .  A
C871        C878   1.521       .  S
C871        C872   1.407       .  A
C872        C873   1.408       .  A
C872        H877   1.083       .  S
C873        C874   1.424       .  A
C874        C875   1.521       .  S
C875        F879   1.386       .  S
C875        F880   1.383       .  S
C875        F881   1.383       .  S
C878        F882   1.383       .  S
C878        F883   1.384       .  S
C878        F884   1.384       .  S
C885        C886   1.409       .  A
C885        C890   1.415       .  A
C885        H892   1.082       .  S
C886        C887   1.421       .  A
C887        C894   1.520       .  S
C887        C888   1.410       .  A
C888        C889   1.408       .  A
C888        H893   1.082       .  S
C889        C890   1.423       .  A
C890        C891   1.519       .  S
C891        F895   1.385       .  S
C891        F896   1.382       .  S
C891        F897   1.383       .  S
C894        F898   1.384       .  S
C894        F899   1.383       .  S
C894        F900   1.384       .  S
C901        C902   1.423       .  A
C901        C906   1.408   1_455  A
C901        H908   1.066       .  S
C902        C903   1.453   1_455  A
C903        C910   1.540       .  S
C903        C904   1.418       .  A
C904        C905   1.399       .  A
C904        H909   1.081       .  S
C905        C906   1.416       .  A
C906        C907   1.526       .  S
C907        F911   1.385   1_655  S
C907        F912   1.384       .  S
C907        F913   1.383       .  S
C910        F914   1.374       .  S
C910        F915   1.373       .  S
C910        F916   1.385       .  S
C917        C918   1.416       .  A
C917        C922   1.415       .  A
C917        H924   1.059       .  S
C918        C919   1.450       .  A
C919        C926   1.521       .  S
C919        C920   1.408       .  A
C920        C921   1.395       .  A
C920        H925   1.082       .  S
C921        C922   1.421       .  A
C922        C923   1.523       .  S
C923        F927   1.385       .  S
C923        F928   1.384       .  S
C923        F929   1.383       .  S
C926        F930   1.375       .  S
C926        F931   1.383       .  S
C926        F932   1.386       .  S
C933        C934   1.404       .  A
C933        C938   1.407       .  A
C933        H940   1.062       .  S
C934        C935   1.432       .  A
C935        C942   1.523       .  S
C935        C936   1.421       .  A
C936        C937   1.418       .  A
C936        H941   1.079       .  S
C937        C938   1.438       .  A
C938        C939   1.540   1_455  S
C939        F943   1.378       .  S
C939        F944   1.373       .  S
C939        F945   1.386       .  S
C942        F946   1.376       .  S
C942        F947   1.380       .  S
C942        F948   1.384       .  S
C949        C950   1.421       .  A
C949        C954   1.406   1_554  A
C949        H956   1.075       .  S
C950        C951   1.450   1_554  A
C951        C958   1.529       .  S
C951        C952   1.412       .  A
C952        C953   1.398       .  A
C952        H957   1.083       .  S
C953        C954   1.414       .  A
C954        C955   1.521   1_455  S
C955        F959   1.386   1_556  S
C955        F960   1.382       .  S
C955        F961   1.383       .  S
C958        F962   1.381       .  S
C958        F963   1.375   1_556  S
C958        F964   1.386       .  S
C965        C966   1.430       .  A
C965        C970   1.402       .  A
C965        H972   1.067       .  S
C966        C967   1.451       .  A
C967        C974   1.532       .  S
C967        C968   1.421       .  A
C968        C969   1.406       .  A
C968        H973   1.084       .  S
C969        C970   1.411       .  A
C970        C971   1.527       .  S
C971        F975   1.385   1_554  S
C971        F976   1.383   1_554  S
C971        F977   1.384       .  S
C974        F978   1.382       .  S
C974        F979   1.375       .  S
C974        F980   1.382       .  S
C981        C982   1.421       .  A
C981        C986   1.427       .  A
C981        H988   1.072       .  S
C982        C983   1.441       .  A
C983        C990   1.543       .  S
C983        C984   1.395       .  A
C984        C985   1.414       .  A
C984        H989   1.075       .  S
C985        C986   1.447       .  A
C986        C987   1.540       .  S
C987        F991   1.384       .  S
C987        F992   1.372       .  S
C987        F993   1.377       .  S
C990        F994   1.366       .  S
C990        F995   1.387       .  S
C990        F996   1.378   1_554  S
C997        C998   1.421       .  A
C997       C1002   1.415       .  A
C997       H1004   1.069       .  S
C998        C999   1.451       .  A
C999       C1006   1.530       .  S
C999       C1000   1.412       .  A
C1000      C1001   1.416       .  A
C1000      H1005   1.074       .  S
C1001      C1002   1.439       .  A
C1002      C1003   1.530       .  S
C1003      F1007   1.385       .  S
C1003      F1008   1.380       .  S
C1003      F1009   1.375       .  S
C1006      F1010   1.374       .  S
C1006      F1011   1.375       .  S
C1006      F1012   1.388       .  S
C1013      C1014   1.428       .  A
C1013      C1018   1.410   1_545  A
C1013      H1020   1.077       .  S
C1014      C1015   1.464       .  A
C1015      C1022   1.546       .  S
C1015      C1016   1.410       .  A
C1016      C1017   1.392   1_545  A
C1016      H1021   1.083   1_545  S
C1017      C1018   1.403       .  A
C1018      C1019   1.518       .  S
C1019      F1023   1.384       .  S
C1019      F1024   1.382       .  S
C1019      F1025   1.383       .  S
C1022      F1026   1.370       .  S
C1022      F1027   1.383   1_554  S
C1022      F1028   1.385   1_554  S
C1029      C1030   1.397       .  A
C1029      C1034   1.419       .  A
C1029      H1036   1.082       .  S
C1030      C1031   1.408       .  A
C1031      C1038   1.525       .  S
C1031      C1032   1.402       .  A
C1032      C1033   1.427       .  A
C1032      H1037   1.075       .  S
C1033      C1034   1.447       .  A
C1034      C1035   1.523       .  S
C1035      F1039   1.381       .  S
C1035      F1040   1.385       .  S
C1035      F1041   1.363       .  S
C1038      F1042   1.382       .  S
C1038      F1043   1.385       .  S
C1038      F1044   1.385       .  S
C1045      C1046   1.420       .  A
C1045      C1050   1.408       .  A
C1045      H1052   1.074       .  S
C1046      C1047   1.454       .  A
C1047      C1054   1.538       .  S
C1047      C1048   1.405       .  A
C1048      C1049   1.395       .  A
C1048      H1053   1.087       .  S
C1049      C1050   1.408       .  A
C1050      C1051   1.519       .  S
C1051      F1055   1.385       .  S
C1051      F1056   1.383       .  S
C1051      F1057   1.383       .  S
C1054      F1058   1.367       .  S
C1054      F1059   1.383       .  S
C1054      F1060   1.385       .  S
C1061      C1062   1.424   1_554  A
C1061      C1066   1.408       .  A
C1061      H1068   1.072       .  S
C1062      C1063   1.461       .  A
C1063      C1070   1.540       .  S
C1063      C1064   1.409   1_556  A
C1064      C1065   1.392       .  A
C1064      H1069   1.087       .  S
C1065      C1066   1.403       .  A
C1066      C1067   1.519       .  S
C1067      F1071   1.384       .  S
C1067      F1072   1.383       .  S
C1067      F1073   1.384       .  S
C1070      F1074   1.386       .  S
C1070      F1075   1.363       .  S
C1070      F1076   1.384       .  S
C1077      C1078   1.414       .  A
C1077      C1082   1.397       .  A
C1077      H1084   1.080       .  S
C1078      C1079   1.445       .  A
C1079      C1086   1.526       .  S
C1079      C1080   1.422       .  A
C1080      C1081   1.420       .  A
C1080      H1085   1.077       .  S
C1081      C1082   1.445       .  A
C1082      C1083   1.529       .  S
C1083      F1087   1.384       .  S
C1083      F1088   1.350       .  S
C1083      F1089   1.381       .  S
C1086      F1090   1.365       .  S
C1086      F1091   1.384   1_556  S
C1086      F1092   1.385       .  S
C1093      C1094   1.434       .  A
C1093      C1098   1.413       .  A
C1093      H1100   1.076       .  S
C1094      C1095   1.453       .  A
C1095      C1102   1.516       .  S
C1095      C1096   1.408       .  A
C1096      C1097   1.384       .  A
C1096      H1101   1.084       .  S
C1097      C1098   1.404       .  A
C1098      C1099   1.520       .  S
C1099      F1103   1.385       .  S
C1099      F1104   1.383       .  S
C1099      F1105   1.383       .  S
C1102      F1106   1.380       .  S
C1102      F1107   1.363       .  S
C1102      F1108   1.386       .  S
C1109      C1110   1.429       .  A
C1109      C1114   1.404       .  A
C1109      H1116   1.079       .  S
C1110      C1111   1.468       .  A
C1111      C1118   1.546       .  S
C1111      C1112   1.414       .  A
C1112      C1113   1.390       .  A
C1112      H1117   1.087       .  S
C1113      C1114   1.403       .  A
C1114      C1115   1.519       .  S
C1115      F1119   1.385       .  S
C1115      F1120   1.383       .  S
C1115      F1121   1.383       .  S
C1118      F1122   1.368       .  S
C1118      F1123   1.386       .  S
C1118      F1124   1.383       .  S
C1125      C1126   1.410       .  A
C1125      C1130   1.397       .  A
C1125      H1132   1.079       .  S
C1126      C1127   1.448       .  A
C1127      C1134   1.541       .  S
C1127      C1128   1.434       .  A
C1128      C1129   1.433       .  A
C1128      H1133   1.073       .  S
C1129      C1130   1.437       .  A
C1130      C1131   1.534       .  S
C1131      F1135   1.385       .  S
C1131      F1136   1.385       .  S
C1131      F1137   1.360       .  S
C1134      F1138   1.373       .  S
C1134      F1139   1.372       .  S
C1134      F1140   1.385       .  S
C1141      C1142   1.427       .  A
C1141      C1146   1.407       .  A
C1141      H1148   1.065       .  S
C1142      C1143   1.456       .  A
C1143      C1150   1.543       .  S
C1143      C1144   1.418       .  A
C1144      C1145   1.421       .  A
C1144      H1149   1.080       .  S
C1145      C1146   1.424       .  A
C1146      C1147   1.539       .  S
C1147      F1151   1.379       .  S
C1147      F1152   1.370       .  S
C1147      F1153   1.384       .  S
C1150      F1154   1.376       .  S
C1150      F1155   1.373       .  S
C1150      F1156   1.385       .  S
C1157      C1158   1.426       .  A
C1157      C1162   1.406       .  A
C1157      H1164   1.067       .  S
C1158      C1159   1.455       .  A
C1159      C1166   1.528       .  S
C1159      C1160   1.421       .  A
C1160      C1161   1.396       .  A
C1160      H1165   1.084       .  S
C1161      C1162   1.409       .  A
C1162      C1163   1.526       .  S
C1163      F1167   1.383       .  S
C1163      F1168   1.383       .  S
C1163      F1169   1.384       .  S
C1166      F1170   1.387       .  S
C1166      F1171   1.372       .  S
C1166      F1172   1.382       .  S
C1173      C1174   1.398       .  A
C1173      C1178   1.420       .  A
C1173      H1180   1.082       .  S
C1174      C1175   1.413       .  A
C1175      C1182   1.524       .  S
C1175      C1176   1.405       .  A
C1176      C1177   1.423       .  A
C1176      H1181   1.068       .  S
C1177      C1178   1.453       .  A
C1178      C1179   1.531       .  S
C1179      F1183   1.386       .  S
C1179      F1184   1.376       .  S
C1179      F1185   1.379       .  S
C1182      F1186   1.382       .  S
C1182      F1187   1.383       .  S
C1182      F1188   1.386       .  S
C1189      C1190   1.424       .  A
C1189      C1194   1.405       .  A
C1189      H1196   1.073       .  S
C1190      C1191   1.470       .  A
C1191      C1198   1.544       .  S
C1191      C1192   1.410       .  A
C1192      C1193   1.388       .  A
C1192      H1197   1.086       .  S
C1193      C1194   1.405       .  A
C1194      C1195   1.520       .  S
C1195      F1199   1.385       .  S
C1195      F1200   1.382       .  S
C1195      F1201   1.384       .  S
C1198      F1202   1.385       .  S
C1198      F1203   1.363       .  S
C1198      F1204   1.385       .  S
C1205      C1206   1.434       .  A
C1205      C1210   1.407       .  A
C1205      H1212   1.077       .  S
C1206      C1207   1.450       .  A
C1207      C1214   1.525       .  S
C1207      C1208   1.413       .  A
C1208      C1209   1.396       .  A
C1208      H1213   1.082       .  S
C1209      C1210   1.406       .  A
C1210      C1211   1.521       .  S
C1211      F1215   1.385       .  S
C1211      F1216   1.382       .  S
C1211      F1217   1.383       .  S
C1214      F1218   1.378       .  S
C1214      F1219   1.366       .  S
C1214      F1220   1.386       .  S
C1221      C1222   1.401       .  A
C1221      C1226   1.400       .  A
C1221      H1228   1.071       .  S
C1222      C1223   1.414       .  A
C1223      C1230   1.514       .  S
C1223      C1224   1.426       .  A
C1224      C1225   1.428       .  A
C1224      H1229   1.076       .  S
C1225      C1226   1.450       .  A
C1226      C1227   1.530       .  S
C1227      F1231   1.373       .  S
C1227      F1232   1.384       .  S
C1227      F1233   1.353       .  S
C1230      F1234   1.376       .  S
C1230      F1235   1.384       .  S
C1230      F1236   1.382       .  S
C1237      C1238   1.435       .  A
C1237      C1242   1.406       .  A
C1237      H1244   1.072       .  S
C1238      C1239   1.471       .  A
C1239      C1246   1.534       .  S
C1239      C1240   1.417       .  A
C1240      C1241   1.386       .  A
C1240      H1245   1.087       .  S
C1241      C1242   1.401       .  A
C1242      C1243   1.522       .  S
C1243      F1247   1.384       .  S
C1243      F1248   1.383       .  S
C1243      F1249   1.383       .  S
C1246      F1250   1.385       .  S
C1246      F1251   1.352       .  S
C1246      F1252   1.383       .  S
C1253      C1254   1.422       .  A
C1253      C1258   1.409       .  A
C1253      H1260   1.078       .  S
C1254      C1255   1.451       .  A
C1255      C1262   1.517       .  S
C1255      C1256   1.408       .  A
C1256      C1257   1.392       .  A
C1256      H1261   1.086       .  S
C1257      C1258   1.412       .  A
C1258      C1259   1.519       .  S
C1259      F1263   1.385       .  S
C1259      F1264   1.382       .  S
C1259      F1265   1.383       .  S
C1262      F1266   1.355       .  S
C1262      F1267   1.383       .  S
C1262      F1268   1.386       .  S
C1269      C1270   1.435       .  A
C1269      C1274   1.451       .  A
C1269      H1276   1.079       .  S
C1270      C1271   1.404       .  A
C1271      C1278   1.522       .  S
C1271      C1272   1.383       .  A
C1272      C1273   1.404       .  A
C1272      H1277   1.062       .  S
C1273      C1274   1.449       .  A
C1274      C1275   1.521       .  S
C1275      F1279   1.382       .  S
C1275      F1280   1.371       .  S
C1275      F1281   1.384       .  S
C1278      F1282   1.375       .  S
C1278      F1283   1.380       .  S
C1278      F1284   1.383       .  S
C1285      C1286   1.422       .  A
C1285      C1290   1.448       .  A
C1285      H1292   1.079       .  S
C1286      C1287   1.427       .  A
C1287      C1294   1.530       .  S
C1287      C1288   1.399       .  A
C1288      C1289   1.422       .  A
C1288      H1293   1.081       .  S
C1289      C1290   1.458       .  A
C1290      C1291   1.529       .  S
C1291      F1295   1.385       .  S
C1291      F1296   1.368       .  S
C1291      F1297   1.381       .  S
C1294      F1298   1.370       .  S
C1294      F1299   1.381       .  S
C1294      F1300   1.386       .  S
C1301      C1302   1.414       .  A
C1301      C1306   1.406       .  A
C1301      H1308   1.078       .  S
C1302      C1303   1.452       .  A
C1303      C1310   1.532       .  S
C1303      C1304   1.407       .  A
C1304      C1305   1.392       .  A
C1304      H1309   1.084       .  S
C1305      C1306   1.415       .  A
C1306      C1307   1.521       .  S
C1307      F1311   1.384       .  S
C1307      F1312   1.383       .  S
C1307      F1313   1.384       .  S
C1310      F1314   1.379       .  S
C1310      F1315   1.375       .  S
C1310      F1316   1.386       .  S
C1317      C1318   1.436       .  A
C1317      C1322   1.406   1_655  A
C1317      H1324   1.070       .  S
C1318      C1319   1.435       .  A
C1319      C1326   1.502       .  S
C1319      C1320   1.411       .  A
C1320      C1321   1.396   1_655  A
C1320      H1325   1.085       .  S
C1321      C1322   1.407       .  A
C1322      C1323   1.524       .  S
C1323      F1327   1.385       .  S
C1323      F1328   1.384       .  S
C1323      F1329   1.383       .  S
C1326      F1330   1.383       .  S
C1326      F1331   1.370       .  S
C1326      F1332   1.385       .  S
C1333      C1334   1.430       .  A
C1333      C1338   1.403       .  A
C1333      H1340   1.069       .  S
C1334      C1335   1.448       .  A
C1335      C1342   1.520       .  S
C1335      C1336   1.410       .  A
C1336      C1337   1.401       .  A
C1336      H1341   1.085       .  S
C1337      C1338   1.412       .  A
C1338      C1339   1.527       .  S
C1339      F1343   1.386       .  S
C1339      F1344   1.383       .  S
C1339      F1345   1.383       .  S
C1342      F1346   1.362       .  S
C1342      F1347   1.380       .  S
C1342      F1348   1.382       .  S
C1349      C1350   1.424       .  A
C1349      C1354   1.408       .  A
C1349      H1356   1.079       .  S
C1350      C1351   1.450       .  A
C1351      C1358   1.530       .  S
C1351      C1352   1.409       .  A
C1352      C1353   1.397       .  A
C1352      H1357   1.082       .  S
C1353      C1354   1.411       .  A
C1354      C1355   1.517       .  S
C1355      F1359   1.385       .  S
C1355      F1360   1.382       .  S
C1355      F1361   1.383       .  S
C1358      F1362   1.366       .  S
C1358      F1363   1.386       .  S
C1358      F1364   1.374       .  S
C1365      C1366   1.413       .  A
C1365      C1370   1.432       .  A
C1365      H1372   1.076       .  S
C1366      C1367   1.416       .  A
C1367      C1374   1.531       .  S
C1367      C1368   1.407       .  A
C1368      C1369   1.418       .  A
C1368      H1373   1.075       .  S
C1369      C1370   1.457       .  A
C1370      C1371   1.532       .  S
C1371      F1375   1.383       .  S
C1371      F1376   1.365       .  S
C1371      F1377   1.376       .  S
C1374      F1378   1.371       .  S
C1374      F1379   1.386       .  S
C1374      F1380   1.381       .  S
C1381      C1382   1.425       .  A
C1381      C1386   1.408       .  A
C1381      H1388   1.079       .  S
C1382      C1383   1.443       .  A
C1383      C1390   1.522       .  S
C1383      C1384   1.410       .  A
C1384      C1385   1.397       .  A
C1384      H1389   1.086       .  S
C1385      C1386   1.417       .  A
C1386      C1387   1.522       .  S
C1387      F1391   1.385       .  S
C1387      F1392   1.383       .  S
C1387      F1393   1.384       .  S
C1390      F1394   1.368       .  S
C1390      F1395   1.384       .  S
C1390      F1396   1.384       .  S
C1397      C1398   1.431       .  A
C1397      C1402   1.413       .  A
C1397      H1404   1.073       .  S
C1398      C1399   1.439       .  A
C1399      C1406   1.509       .  S
C1399      C1400   1.404       .  A
C1400      C1401   1.398       .  A
C1400      H1405   1.085       .  S
C1401      C1402   1.414       .  A
C1402      C1403   1.520       .  S
C1403      F1407   1.385       .  S
C1403      F1408   1.382       .  S
C1403      F1409   1.383       .  S
C1406      F1410   1.379       .  S
C1406      F1411   1.361       .  S
C1406      F1412   1.383       .  S
C1413      C1414   1.406       .  A
C1413      C1418   1.398       .  A
C1413      H1420   1.074       .  S
C1414      C1415   1.443       .  A
C1415      C1422   1.533       .  S
C1415      C1416   1.431       .  A
C1416      C1417   1.425       .  A
C1416      H1421   1.074       .  S
C1417      C1418   1.446       .  A
C1418      C1419   1.538       .  S
C1419      F1423   1.384       .  S
C1419      F1424   1.357       .  S
C1419      F1425   1.382       .  S
C1422      F1426   1.377       .  S
C1422      F1427   1.374       .  S
C1422      F1428   1.382       .  S
C1429      C1430   1.425       .  A
C1429      C1434   1.409       .  A
C1429      H1436   1.075       .  S
C1430      C1431   1.458       .  A
C1431      C1438   1.532       .  S
C1431      C1432   1.420       .  A
C1432      C1433   1.415       .  A
C1432      H1437   1.073       .  S
C1433      C1434   1.419       .  A
C1434      C1435   1.520       .  S
C1435      F1439   1.382   1_565  S
C1435      F1440   1.378       .  S
C1435      F1441   1.384       .  S
C1438      F1442   1.376       .  S
C1438      F1443   1.379       .  S
C1438      F1444   1.387       .  S
C1445      C1446   1.390       .  A
C1445      C1450   1.413       .  A
C1445      H1452   1.086       .  S
C1446      C1447   1.403       .  A
C1447      C1454   1.522   1_565  S
C1447      C1448   1.402       .  A
C1448      C1449   1.427       .  A
C1448      H1453   1.078   1_565  S
C1449      C1450   1.466       .  A
C1450      C1451   1.544       .  S
C1451      F1455   1.386       .  S
C1451      F1456   1.384       .  S
C1451      F1457   1.366       .  S
C1454      F1458   1.382       .  S
C1454      F1459   1.383       .  S
C1454      F1460   1.386       .  S
C1461      C1462   1.430   1_545  A
C1461      C1466   1.416       .  A
C1461      H1468   1.074       .  S
C1462      C1463   1.454   1_565  A
C1463      C1470   1.521   1_545  S
C1463      C1464   1.412       .  A
C1464      C1465   1.389       .  A
C1464      H1469   1.083       .  S
C1465      C1466   1.407       .  A
C1466      C1467   1.517       .  S
C1467      F1471   1.384       .  S
C1467      F1472   1.384       .  S
C1467      F1473   1.382       .  S
C1470      F1474   1.380       .  S
C1470      F1475   1.363       .  S
C1470      F1476   1.385   1_565  S
