geometry optimzed in LAMMPS
_audit_creation_date              2020-11-30 
_audit_creation_method            'lammps2cif' 
_symmetry_space_group_name_H-M    'P1' 
_symmetry_Int_Tables_number       1 
_symmetry_cell_setting            triclinic 
loop_ 
_symmetry_equiv_pos_as_xyz 
  x,y,z 
_cell_length_a                    33.287288453729566 
_cell_length_b                    26.10543776746037 
_cell_length_c                    32.716997126578384 
_cell_angle_alpha                 89.28207951118603 
_cell_angle_beta                  89.71984954158255 
_cell_angle_gamma                 90.61242320988758 
loop_ 
_atom_site_label 
_atom_site_type_symbol 
_atom_site_fract_x 
_atom_site_fract_y 
_atom_site_fract_z 
_atom_site_charge 
C1          C  0.13128704  0.04557611  0.55973973     0.04050
C2          C  0.09729208  0.01491383  0.55214906    -0.12100
C3          C  0.06188313  0.03748294  0.53665856     0.01550
C4          C  0.06267076  0.09055913  0.52718964    -0.10620
C5          C  0.09477360  0.12230697  0.53895484     0.04050
C6          C  0.12878296  0.09873287  0.55558876    -0.10040
H7          H  0.09870612  0.47437495  0.55897454     0.09640
H8          H  0.03785708  0.10739373  0.51095927     0.07170
H9          H  0.15387166  0.12112185  0.56648818     0.07020
N10         N  0.39210567  0.10931867  0.77822224    -0.26370
N11         N  0.43140764  0.11708420  0.77693988    -0.34220
C12         C  0.44366255  0.13560840  0.81306888     0.01980
C13         C  0.41040728  0.13992334  0.83820018     0.08000
C14         C  0.37827254  0.12283913  0.81517043    -0.05100
H15         H  0.47414393  0.14742204  0.81974570     0.08670
H16         H  0.34694010  0.12186205  0.82407629     0.09870
Cu17       Cu  0.46539459  0.10920910  0.72432980     0.44170
Cu18       Cu  0.35850708  0.08424922  0.72879282     0.41990
Cu19       Cu  0.41042743  0.07723659  0.63206935     0.43880
N20         N  0.48949854  0.11469593  0.66599979    -0.33750
N21         N  0.46892973  0.10583768  0.63227432    -0.28010
C22         C  0.49177011  0.11918812  0.59970674    -0.04110
C23         C  0.52852972  0.13652480  0.61373420     0.08110
C24         C  0.52617717  0.13287407  0.65581659     0.01910
H25         H  0.48230900  0.11643346  0.56821111     0.09560
H26         H  0.54882832  0.14453747  0.67750169     0.08640
N27         N  0.35092669  0.05436313  0.64037504    -0.35200
N28         N  0.33164863  0.05848822  0.67550923    -0.27380
C29         C  0.29283338  0.04570059  0.67007553    -0.02620
C30         C  0.28705139  0.03235167  0.62948273     0.05990
C31         C  0.32497292  0.03819082  0.61177336     0.04080
H32         H  0.27018560  0.04893141  0.69364676     0.09190
H33         H  0.33328594  0.03276612  0.58019510     0.08020
C34         C  0.12355089  0.45457099  0.03520477     0.04050
C35         C  0.08645003  0.43140227  0.04352440    -0.12100
C36         C  0.05031763  0.45806516  0.03871189     0.01550
C37         C  0.05253768  0.01181453  0.03352763    -0.10620
C38         C  0.09036441  0.03717279  0.02950490     0.04050
C39         C  0.12508819  0.00704242  0.02646656    -0.10040
H40         H  0.08598618  0.39171809  0.05344990     0.09640
H41         H  0.02517806  0.03359394  0.03377358     0.07170
H42         H  0.15377358  0.02448208  0.01867727     0.07020
N43         N  0.44787212  0.28568921  0.06932706    -0.26370
N44         N  0.47227200  0.27064630  0.03980031    -0.34220
C45         C  0.51043671  0.28088457  0.05082071     0.01980
C46         C  0.50984482  0.30266707  0.08914319     0.08000
C47         C  0.46982741  0.30481815  0.10003073    -0.05100
H48         H  0.53661501  0.27314259  0.03227547     0.08670
H49         H  0.45740218  0.32127881  0.12745914     0.09870
Cu50       Cu  0.45334439  0.23683521  0.98555776     0.44170
Cu51       Cu  0.38581974  0.28782062  0.06574847     0.41990
Cu52       Cu  0.34680646  0.23480384  0.97455993     0.43880
N53         N  0.42427978  0.20197656  0.93663273    -0.33750
N54         N  0.38470824  0.20017514  0.93401639    -0.28010
C55         C  0.37401382  0.17661664  0.89948063    -0.04110
C56         C  0.40849524  0.16302129  0.87894972     0.08110
C57         C  0.43995830  0.17961255  0.90331165     0.01910
H58         H  0.34334712  0.17170249  0.88935325     0.09560
H59         H  0.47174766  0.17663052  0.89691490     0.08640
N60         N  0.31363966  0.27975222  0.01270508    -0.35200
N61         N  0.32719921  0.29887801  0.04716053    -0.27380
C62         C  0.29902010  0.32958283  0.06299567    -0.02620
C63         C  0.26620864  0.32976088  0.03690008     0.05990
C64         C  0.27682489  0.29768692  0.00539206     0.04080
H65         H  0.30283208  0.35127132  0.09066237     0.09190
H66         H  0.26014349  0.28998357  0.97783427     0.08020
C67         C  0.94075613  0.41700966  0.05830986     0.04050
C68         C  0.97489613  0.44889363  0.05362844    -0.12100
C69         C  0.01160983  0.42801348  0.04013691     0.01550
C70         C  0.01224746  0.37572414  0.02915604    -0.10620
C71         C  0.98003284  0.34247343  0.03808940     0.04050
C72         C  0.94449940  0.36405586  0.05302553    -0.10040
H73         H  0.97268143  0.48905052  0.06089716     0.09640
H74         H  0.03851325  0.36051593  0.01432893     0.07170
H75         H  0.91920146  0.33990578  0.06163717     0.07020
N76         N  0.67791706  0.35934618  0.27684261    -0.26370
N77         N  0.63897472  0.34899143  0.27547891    -0.34220
C78         C  0.62699955  0.32900778  0.31171174     0.01980
C79         C  0.66007200  0.32628825  0.33697132     0.08000
C80         C  0.69179857  0.34592622  0.31393734    -0.05100
H81         H  0.59701934  0.31467102  0.31824420     0.08670
H82         H  0.72299152  0.34840466  0.32286465     0.09870
Cu83       Cu  0.60543495  0.35408062  0.22255586     0.44170
Cu84       Cu  0.71137201  0.38664908  0.22711688     0.41990
Cu85       Cu  0.66089139  0.38477227  0.12971459     0.43880
N86         N  0.58218441  0.34566342  0.16446266    -0.33750
N87         N  0.60305005  0.35410911  0.13049595    -0.28010
C88         C  0.58074550  0.33963033  0.09833618    -0.04110
C89         C  0.54400402  0.32194809  0.11288617     0.08110
C90         C  0.54584339  0.32656212  0.15484311     0.01910
H91         H  0.59042983  0.34224516  0.06675736     0.09560
H92         H  0.52295123  0.31536401  0.17687204     0.08640
N93         N  0.71934194  0.41160741  0.13718662    -0.35200
N94         N  0.73816911  0.41128651  0.17262025    -0.27380
C95         C  0.77672598  0.42545592  0.16640092    -0.02620
C96         C  0.78272228  0.43537975  0.12495693     0.05990
C97         C  0.74528317  0.42644787  0.10760035     0.04080
H98         H  0.79932013  0.42494973  0.19002961     0.09190
H99         H  0.73749068  0.42840291  0.07560775     0.08020
C100        C  0.95003052  0.50874615  0.52682032     0.04050
C101        C  0.98644059  0.03389602  0.53394224    -0.12100
C102        C  0.02328073  0.50781574  0.53180141     0.01550
C103        C  0.02204152  0.45402339  0.52723533    -0.10620
C104        C  0.98497061  0.42761853  0.52269819     0.04050
C105        C  0.94971791  0.45642378  0.51906896    -0.10040
H106        H  0.98548482  0.07412831  0.54129468     0.09640
H107        H  0.04953430  0.43260335  0.52868909     0.07170
H108        H  0.92120076  0.43782595  0.51295684     0.07020
N109        N  0.62474999  0.17279968  0.56857936    -0.26370
N110        N  0.60024941  0.18844291  0.53927581    -0.34220
C111        C  0.56211764  0.17817007  0.55090388     0.01980
C112        C  0.56278450  0.15573885  0.58939571     0.08000
C113        C  0.60284063  0.15324828  0.59978224    -0.05100
H114        H  0.53589253  0.18643112  0.53267527     0.08670
H115        H  0.61529903  0.13630019  0.62721595     0.09870
Cu116      Cu  0.61877518  0.22336048  0.48453601     0.44170
Cu117      Cu  0.68683167  0.17036653  0.56384708     0.41990
Cu118      Cu  0.72491297  0.22490748  0.47107840     0.43880
N119        N  0.64725980  0.25996712  0.43514202    -0.33750
N120        N  0.68679410  0.26176119  0.43167056    -0.28010
C121        C  0.69713992  0.28692992  0.39714828    -0.04110
C122        C  0.66244469  0.30154287  0.37752157     0.08110
C123        C  0.63123668  0.28385233  0.40238416     0.01910
H124        H  0.72768665  0.29216744  0.38634146     0.09560
H125        H  0.59938309  0.28720846  0.39672809     0.08640
N126        N  0.75798899  0.17785140  0.50827388    -0.35200
N127        N  0.74496557  0.15848287  0.54344230    -0.27380
C128        C  0.77299422  0.12662134  0.55851693    -0.02620
C129        C  0.80470328  0.12577961  0.53095647     0.05990
C130        C  0.79415021  0.15866137  0.49960806     0.04080
H131        H  0.76946223  0.10348076  0.58598075     0.09190
H132        H  0.81098091  0.16693327  0.47188960     0.08020
C133        C  0.94583038  0.29867550  0.56079744     0.04050
C134        C  0.94747296  0.34976673  0.54786726    -0.12100
C135        C  0.98166850  0.37077430  0.52856341     0.01550
C136        C  0.01403732  0.33831987  0.52087551    -0.10620
C137        C  0.01459557  0.28766559  0.53674750     0.04050
C138        C  0.97962163  0.26761192  0.55602576    -0.10040
H139        H  0.92241044  0.37376615  0.55589675     0.09640
H140        H  0.03974227  0.35334540  0.50414120     0.07170
H141        H  0.97925715  0.22950467  0.56940917     0.07020
N142        N  0.67804780  0.35595521  0.78177633    -0.26370
N143        N  0.63956851  0.36724979  0.77920774    -0.34220
C144        C  0.62739457  0.38736094  0.81483703     0.01980
C145        C  0.66003074  0.38900636  0.84084070     0.08000
C146        C  0.69157022  0.36873129  0.81889811    -0.05100
H147        H  0.59769282  0.40216777  0.82052770     0.08670
H148        H  0.72246923  0.36532803  0.82854538     0.09870
Cu149      Cu  0.60835263  0.36157335  0.72493407     0.44170
Cu150      Cu  0.71133515  0.32927888  0.73317975     0.41990
Cu151      Cu  0.66863876  0.33874214  0.63209828     0.43880
N152        N  0.58685923  0.36706212  0.66582601    -0.33750
N153        N  0.60864463  0.36156222  0.63221831    -0.28010
C154        C  0.58577965  0.37342033  0.59961221    -0.04110
C155        C  0.54791898  0.38637719  0.61353690     0.08110
C156        C  0.54966357  0.38166475  0.65552681     0.01910
H157        H  0.59600055  0.37281111  0.56818499     0.09560
H158        H  0.52609526  0.39018684  0.67720562     0.08640
N159        N  0.72737934  0.31500124  0.64325590    -0.35200
N160        N  0.74218222  0.31083406  0.68053159    -0.27380
C161        C  0.78092468  0.29739687  0.67824578    -0.02620
C162        C  0.79160411  0.29313738  0.63748733     0.05990
C163        C  0.75666235  0.30433353  0.61613780     0.04080
H164        H  0.80010823  0.29257527  0.70455580     0.09190
H165        H  0.75328934  0.30725562  0.58332948     0.08020
C166        C  0.95088022  0.20132299  0.03857302     0.04050
C167        C  0.94914253  0.25429524  0.03221320    -0.12100
C168        C  0.98398358  0.28529984  0.03498893     0.01550
C169        C  0.02181306  0.26071425  0.03772385    -0.10540
C170        C  0.02406451  0.20683568  0.04082783     0.04050
C171        C  0.98809049  0.17871077  0.04483964    -0.10040
H172        H  0.92028071  0.27107320  0.02570628     0.09640
H173        H  0.04929996  0.28296858  0.03814599     0.07170
H174        H  0.98880991  0.13832002  0.05261866     0.07020
N175        N  0.62544060  0.03314213  0.07280556    -0.26370
N176        N  0.60117661  0.01926516  0.04284726    -0.34220
C177        C  0.56305391  0.02933159  0.05377108     0.01980
C178        C  0.56339005  0.05004792  0.09244918     0.08000
C179        C  0.60333788  0.05169569  0.10365885    -0.05100
H180        H  0.53704415  0.52191921  0.03497490     0.08670
H181        H  0.61561615  0.06671163  0.13168321     0.09870
Cu182      Cu  0.61996461  0.48670232  0.98829247     0.44170
Cu183      Cu  0.68772876  0.03220057  0.06993096     0.41990
Cu184      Cu  0.72652060  0.97786510  0.97867606     0.43880
N185        N  0.64800694  0.45170819  0.93913414    -0.33750
N186        N  0.68744554  0.44729513  0.93693415    -0.28010
C187        C  0.69737263  0.42349639  0.90230470    -0.04110
C188        C  0.66252574  0.41247367  0.88136515     0.08110
C189        C  0.63165513  0.43089614  0.90549307     0.01910
H190        H  0.72786810  0.41629785  0.89256500     0.09560
H191        H  0.59984762  0.42978514  0.89892412     0.08640
N192        N  0.76101455  0.02001631  0.01806524    -0.35200
N193        N  0.74743126  0.03961829  0.05233761    -0.27380
C194        C  0.77615902  0.06998600  0.06818044    -0.02620
C195        C  0.80928583  0.07007142  0.04209296     0.05990
C196        C  0.79830700  0.03765123  0.01077039     0.04080
H197        H  0.77217580  0.09212851  0.09555075     0.09190
H198        H  0.81466807  0.03040251  0.98286402     0.08020
C199        C  0.12654470  0.26279770  0.54128447     0.04050
C200        C  0.08946256  0.28710071  0.54148366    -0.12100
C201        C  0.05337018  0.25927942  0.53729133     0.01550
C202        C  0.05503027  0.20536207  0.53579699    -0.10620
C203        C  0.09237744  0.17973718  0.53622965     0.04050
C204        C  0.12785783  0.20970801  0.53699867    -0.10040
H205        H  0.08904162  0.32821616  0.54518380     0.09640
H206        H  0.02722226  0.18380448  0.53499898     0.07170
H207        H  0.15701539  0.19221532  0.53533216     0.07020
N208        N  0.45112530  0.42276459  0.57191848    -0.26370
N209        N  0.47487057  0.43621182  0.54094956    -0.34220
C210        C  0.51305459  0.42473972  0.55062683     0.01980
C211        C  0.51321119  0.40361507  0.58961339     0.08000
C212        C  0.47354552  0.40314531  0.60221312    -0.05100
H213        H  0.53879436  0.43207383  0.53103397     0.08670
H214        H  0.46168004  0.38870800  0.63101813     0.09870
Cu215      Cu  0.45460029  0.47137040  0.48756487     0.44170
Cu216      Cu  0.38900915  0.42688045  0.57130985     0.41990
Cu217      Cu  0.34720023  0.48485277  0.48169490     0.43880
N218        N  0.42583428  0.01008167  0.44023910    -0.33750
N219        N  0.38648038  0.51611485  0.43904980    -0.28010
C220        C  0.37683043  0.04241651  0.40500672    -0.04110
C221        C  0.41176995  0.05333177  0.38353235     0.08110
C222        C  0.44231567  0.03226010  0.40667873     0.01910
H223        H  0.34646856  0.05139022  0.39597313     0.09560
H224        H  0.47405666  0.03241649  0.39944484     0.08640
N225        N  0.31363113  0.44292815  0.52361745    -0.35200
N226        N  0.32854700  0.42213164  0.55720795    -0.27380
C227        C  0.30043693  0.39135330  0.57460829    -0.02620
C228        C  0.26644071  0.39294227  0.55055775     0.05990
C229        C  0.27590355  0.42576407  0.51849934     0.04080
H230        H  0.30571614  0.36590374  0.60032388     0.09190
H231        H  0.25788453  0.43329447  0.49169537     0.08020
C232        C  0.13257543  0.16678483  0.06090933     0.04050
C233        C  0.12983906  0.11512294  0.05051864    -0.12100
C234        C  0.09471417  0.09414046  0.03369560     0.01550
C235        C  0.06263373  0.12715109  0.02615292    -0.10620
C236        C  0.06279030  0.17805775  0.04062410     0.04050
C237        C  0.09863351  0.19811466  0.05733288    -0.10040
H238        H  0.15505893  0.09102642  0.05802297     0.09640
H239        H  0.03659354  0.11246019  0.01036894     0.07170
H240        H  0.09996887  0.23679682  0.06875848     0.07020
N241        N  0.39857326  0.11366560  0.28375592    -0.26370
N242        N  0.43653636  0.09971675  0.28113250    -0.34220
C243        C  0.44769335  0.07837014  0.31689528     0.01980
C244        C  0.41501609  0.07843434  0.34313149     0.08000
C245        C  0.38442362  0.10119710  0.32118044    -0.05100
H246        H  0.47656378  0.06102260  0.32237886     0.08670
H247        H  0.35361001  0.10602670  0.33091650     0.09870
Cu248      Cu  0.46865768  0.10116221  0.22686525     0.44170
Cu249      Cu  0.36620262  0.14187336  0.23449289     0.41990
Cu250      Cu  0.40835795  0.11551844  0.13488374     0.43880
N251        N  0.49039283  0.09003893  0.16834018    -0.33750
N252        N  0.46817068  0.09267114  0.13497322    -0.28010
C253        C  0.49068864  0.07887823  0.10270107    -0.04110
C254        C  0.52884411  0.06750565  0.11651692     0.08110
C255        C  0.52762336  0.07518211  0.15818409     0.01910
H256        H  0.48009904  0.07744445  0.07152345     0.09560
H257        H  0.55165493  0.06896892  0.17976966     0.08640
N258        N  0.35087136  0.14443583  0.14379738    -0.35200
N259        N  0.33643852  0.15633164  0.18006306    -0.27380
C260        C  0.29870630  0.17334421  0.17580462    -0.02620
C261        C  0.28809770  0.17146810  0.13476207     0.05990
C262        C  0.32237703  0.15289425  0.11554558     0.04080
H263        H  0.28036124  0.18490924  0.20129458     0.09190
H264        H  0.32608404  0.14361001  0.08368763     0.08020
C265        C  0.20535061  0.18800322  0.05557051     0.24520
C266        C  0.17054525  0.18392435  0.07978586    -0.23590
C267        C  0.17430776  0.18142730  0.12235762     0.19430
C268        C  0.21230682  0.17961693  0.14047857     0.24460
C269        C  0.24766031  0.18073640  0.11621625    -0.23530
C270        C  0.24343762  0.18701036  0.07349767     0.19360
F271        F  0.27597990  0.18971521  0.04851138    -0.13490
F272        F  0.20244056  0.18877203  0.01417725    -0.15850
F273        F  0.21379477  0.17229266  0.18151461    -0.15850
F274        F  0.14106074  0.17541196  0.14622687    -0.13490
C275        C  0.19611836  0.28748493  0.51834944     0.24520
C276        C  0.16399255  0.29329763  0.54593628    -0.23590
C277        C  0.16745289  0.32953582  0.57737048     0.19430
C278        C  0.20169044  0.36076159  0.58000509     0.24460
C279        C  0.23268172  0.35641690  0.55122131    -0.23530
C280        C  0.23015997  0.31888493  0.52100333     0.19360
F281        F  0.26057319  0.31317944  0.49367950    -0.13490
F282        F  0.19389417  0.25298263  0.48771244    -0.15850
F283        F  0.20411348  0.39611444  0.60992083    -0.15850
F284        F  0.13766129  0.33475866  0.60547760    -0.13490
C285        C  0.91385723  0.12153381  0.01878034     0.24520
C286        C  0.91409768  0.16869440  0.03911643    -0.23590
C287        C  0.87986120  0.18285708  0.06144928     0.19430
C288        C  0.84592211  0.15078405  0.06298957     0.24460
C289        C  0.84585715  0.10319362  0.04299083    -0.23530
C290        C  0.88064511  0.08872248  0.02150054     0.19360
F291        F  0.88306991  0.04239238  0.00335648    -0.13490
F292        F  0.94575622  0.10724743  0.99566800    -0.15850
F293        F  0.81298585  0.16728125  0.08329586    -0.15850
F294        F  0.87941435  0.22736286  0.08248868    -0.13490
C295        C  0.90465160  0.30340322  0.62353341     0.24520
C296        C  0.90995509  0.28264902  0.58455168    -0.23590
C297        C  0.87686461  0.26063016  0.56467006     0.19430
C298        C  0.83852007  0.26224648  0.58256267     0.24460
C299        C  0.83270752  0.28574460  0.62063199    -0.23530
C300        C  0.86651432  0.30513664  0.64138661     0.19360
F301        F  0.86243796  0.33033344  0.67716521    -0.13490
F302        F  0.93594346  0.32682792  0.64247884    -0.15850
F303        F  0.80682125  0.24286907  0.56185502    -0.15850
F304        F  0.88114336  0.24133695  0.52656468    -0.13490
C305        C  0.86537281  0.09103874  0.56587238     0.24520
C306        C  0.84026905  0.09288893  0.53155815    -0.23590
C307        C  0.85051282  0.06524825  0.49648858     0.19430
C308        C  0.88593217  0.03727982  0.49525066     0.24460
C309        C  0.91187416  0.03690056  0.52891180    -0.23530
C310        C  0.90114866  0.06342647  0.56447975     0.19360
F311        F  0.92525285  0.06236401  0.59784309    -0.13490
F312        F  0.85603861  0.11751178  0.60003510    -0.15850
F313        F  0.89548395  0.51168651  0.46071721    -0.15850
F314        F  0.82603117  0.06512699  0.46341182    -0.13490
C315        C  0.82825360  0.42356371  0.06403999     0.24520
C316        C  0.82220106  0.44267036  0.10369289    -0.23590
C317        C  0.85554200  0.46374291  0.12438998     0.19430
C318        C  0.89445395  0.46017526  0.10794849     0.24460
C319        C  0.90057180  0.43618598  0.07031218    -0.23530
C320        C  0.86690213  0.42089889  0.04750656     0.19360
F321        F  0.87183381  0.39918747  0.01031559    -0.13490
F322        F  0.79756774  0.40304087  0.04234714    -0.15850
F323        F  0.92629558  0.47617571  0.13037132    -0.15850
F324        F  0.85082122  0.48579754  0.16141656    -0.13490
C325        C  0.19401856  0.34365135  0.01995738     0.24520
C326        C  0.22944942  0.36115231  0.03875191    -0.23590
C327        C  0.22975486  0.40983982  0.05686246     0.19430
C328        C  0.19543956  0.44034824  0.05583946     0.24460
C329        C  0.16043752  0.42317786  0.03602013    -0.23530
C330        C  0.16029245  0.37459102  0.01791119     0.19360
F331        F  0.12761672  0.35716198  0.99737735    -0.13490
F332        F  0.19161599  0.29620820  0.00365707    -0.15850
F333        F  0.19635510  0.98634115  0.07476743    -0.15850
F334        F  0.26348309  0.42882783  0.07450353    -0.13490
C335        C  0.21339123  0.00770653  0.63181013     0.24520
C336        C  0.24768721  0.02297652  0.60886384    -0.23590
C337        C  0.24277370  0.03404450  0.56684071     0.19430
C338        C  0.20448124  0.03449697  0.54951360     0.24460
C339        C  0.17017410  0.02494681  0.57370284    -0.23530
C340        C  0.17497573  0.00925687  0.61444585     0.19360
F341        F  0.14226022  0.99961230  0.63835739    -0.13490
F342        F  0.21662001  0.99292978  0.67153885    -0.15850
F343        F  0.20051298  0.04934274  0.50980206    -0.15850
F344        F  0.27424409  0.04897356  0.54290593    -0.13490
C345        C  0.13128705  0.54557614  0.55973973     0.04050
C346        C  0.09729209  0.51491384  0.55214905    -0.12100
C347        C  0.06188315  0.53748295  0.53665854     0.01550
C348        C  0.06267078  0.59055914  0.52718961    -0.10620
C349        C  0.09477361  0.62230698  0.53895482     0.04050
C350        C  0.12878297  0.59873289  0.55558875    -0.10040
H351        H  0.09870611  0.97437493  0.55897454     0.09640
H352        H  0.03785710  0.60739374  0.51095923     0.07170
H353        H  0.15387166  0.62112188  0.56648817     0.07020
N354        N  0.39210570  0.60931864  0.77822226    -0.26370
N355        N  0.43140767  0.61708416  0.77693989    -0.34220
C356        C  0.44366259  0.63560835  0.81306889     0.01980
C357        C  0.41040731  0.63992330  0.83820020     0.08000
C358        C  0.37827257  0.62283910  0.81517045    -0.05100
H359        H  0.47414396  0.64742199  0.81974571     0.08670
H360        H  0.34694013  0.62186201  0.82407631     0.09870
Cu361      Cu  0.46539461  0.60920906  0.72432981     0.44170
Cu362      Cu  0.35850711  0.58424920  0.72879283     0.41990
Cu363      Cu  0.41042745  0.57723655  0.63206936     0.43880
N364        N  0.48949856  0.61469588  0.66599980    -0.33750
N365        N  0.46892975  0.60583764  0.63227433    -0.28010
C366        C  0.49177013  0.61918808  0.59970676    -0.04110
C367        C  0.52852974  0.63652476  0.61373421     0.08110
C368        C  0.52617719  0.63287402  0.65581660     0.01910
H369        H  0.48230902  0.61643342  0.56821112     0.09560
H370        H  0.54882834  0.64453742  0.67750170     0.08640
N371        N  0.35092670  0.55436311  0.64037506    -0.35200
N372        N  0.33164864  0.55848821  0.67550925    -0.27380
C373        C  0.29283339  0.54570060  0.67007556    -0.02620
C374        C  0.28705140  0.53235167  0.62948276     0.05990
C375        C  0.32497293  0.53819080  0.61177339     0.04080
H376        H  0.27018562  0.54893143  0.69364678     0.09190
H377        H  0.33328594  0.53276610  0.58019512     0.08020
C378        C  0.12355093  0.95457101  0.03520470     0.04050
C379        C  0.08645007  0.93140229  0.04352435    -0.12100
C380        C  0.05031767  0.95806517  0.03871187     0.01550
C381        C  0.05253765  0.51181452  0.03352766    -0.10620
C382        C  0.09036439  0.53717277  0.02950496     0.04050
C383        C  0.12508816  0.50704239  0.02646664    -0.10040
H384        H  0.08598623  0.89171811  0.05344986     0.09640
H385        H  0.02517803  0.53359393  0.03377359     0.07170
H386        H  0.15377356  0.52448206  0.01867736     0.07020
N387        N  0.44787215  0.78568925  0.06932705    -0.26370
N388        N  0.47227203  0.77064632  0.03980030    -0.34220
C389        C  0.51043674  0.78088460  0.05082070     0.01980
C390        C  0.50984485  0.80266710  0.08914318     0.08000
C391        C  0.46982744  0.80481819  0.10003071    -0.05100
H392        H  0.53661504  0.77314260  0.03227546     0.08670
H393        H  0.45740220  0.82127886  0.12745913     0.09870
Cu394      Cu  0.45334442  0.73683521  0.98555776     0.44170
Cu395      Cu  0.38581977  0.78782064  0.06574845     0.41990
Cu396      Cu  0.34680649  0.73480379  0.97455995     0.43880
N397        N  0.42427981  0.70197653  0.93663274    -0.33750
N398        N  0.38470828  0.70017509  0.93401641    -0.28010
C399        C  0.37401385  0.67661658  0.89948065    -0.04110
C400        C  0.40849527  0.66302124  0.87894974     0.08110
C401        C  0.43995833  0.67961252  0.90331166     0.01910
H402        H  0.34334715  0.67170242  0.88935328     0.09560
H403        H  0.47174769  0.67663051  0.89691491     0.08640
N404        N  0.31363968  0.77975220  0.01270507    -0.35200
N405        N  0.32719924  0.79887801  0.04716051    -0.27380
C406        C  0.29902013  0.82958285  0.06299563    -0.02620
C407        C  0.26620868  0.82976089  0.03690003     0.05990
C408        C  0.27682492  0.79768690  0.00539204     0.04080
H409        H  0.30283211  0.85127137  0.09066231     0.09190
H410        H  0.26014352  0.78998353  0.97783425     0.08020
C411        C  0.94075618  0.91700968  0.05830991     0.04050
C412        C  0.97489618  0.94889365  0.05362848    -0.12100
C413        C  0.01160987  0.92801349  0.04013693     0.01550
C414        C  0.01224749  0.87572415  0.02915607    -0.10620
C415        C  0.98003287  0.84247345  0.03808944     0.04050
C416        C  0.94449944  0.86405589  0.05302559    -0.10040
H417        H  0.97268148  0.98905054  0.06089720     0.09640
H418        H  0.03851327  0.86051593  0.01432895     0.07170
H419        H  0.91920149  0.83990581  0.06163722     0.07020
N420        N  0.67791707  0.85934614  0.27684262    -0.26370
N421        N  0.63897473  0.84899139  0.27547891    -0.34220
C422        C  0.62699956  0.82900773  0.31171174     0.01980
C423        C  0.66007201  0.82628820  0.33697133     0.08000
C424        C  0.69179858  0.84592617  0.31393735    -0.05100
H425        H  0.59701935  0.81467098  0.31824420     0.08670
H426        H  0.72299153  0.84840461  0.32286467     0.09870
Cu427      Cu  0.60543497  0.85408060  0.22255587     0.44170
Cu428      Cu  0.71137203  0.88664904  0.22711690     0.41990
Cu429      Cu  0.66089142  0.88477228  0.12971460     0.43880
N430        N  0.58218444  0.84566343  0.16446266    -0.33750
N431        N  0.60305008  0.85410913  0.13049595    -0.28010
C432        C  0.58074553  0.83963036  0.09833617    -0.04110
C433        C  0.54400405  0.82194812  0.11288616     0.08110
C434        C  0.54584342  0.82656214  0.15484310     0.01910
H435        H  0.59042986  0.84224520  0.06675736     0.09560
H436        H  0.52295126  0.81536402  0.17687203     0.08640
N437        N  0.71934198  0.91160741  0.13718664    -0.35200
N438        N  0.73816914  0.91128649  0.17262028    -0.27380
C439        C  0.77672601  0.92545589  0.16640097    -0.02620
C440        C  0.78272233  0.93537974  0.12495698     0.05990
C441        C  0.74528322  0.92644787  0.10760038     0.04080
H442        H  0.79932016  0.92494969  0.19002966     0.09190
H443        H  0.73749073  0.92840294  0.07560778     0.08020
C444        C  0.95003050  0.00874614  0.52682034     0.04050
C445        C  0.98644061  0.53389603  0.53394222    -0.12100
C446        C  0.02328071  0.00781573  0.53180144     0.01550
C447        C  0.02204151  0.95402338  0.52723537    -0.10620
C448        C  0.98497059  0.92761852  0.52269823     0.04050
C449        C  0.94971789  0.95642376  0.51906900    -0.10040
H450        H  0.98548484  0.57412832  0.54129466     0.09640
H451        H  0.04953429  0.93260334  0.52868913     0.07170
H452        H  0.92120074  0.93782593  0.51295688     0.07020
N453        N  0.62475000  0.67279966  0.56857938    -0.26370
N454        N  0.60024942  0.68844287  0.53927583    -0.34220
C455        C  0.56211765  0.67817002  0.55090389     0.01980
C456        C  0.56278452  0.65573882  0.58939572     0.08000
C457        C  0.60284065  0.65324826  0.59978226    -0.05100
H458        H  0.53589255  0.68643107  0.53267528     0.08670
H459        H  0.61529904  0.63630017  0.62721597     0.09870
Cu460      Cu  0.61877519  0.72336044  0.48453602     0.44170
Cu461      Cu  0.68683168  0.67036653  0.56384710     0.41990
Cu462      Cu  0.72491297  0.72490747  0.47107842     0.43880
N463        N  0.64725981  0.75996708  0.43514203    -0.33750
N464        N  0.68679410  0.76176116  0.43167057    -0.28010
C465        C  0.69713993  0.78692989  0.39714829    -0.04110
C466        C  0.66244470  0.80154282  0.37752157     0.08110
C467        C  0.63123669  0.78385227  0.40238416     0.01910
H468        H  0.72768666  0.79216741  0.38634148     0.09560
H469        H  0.59938310  0.78720839  0.39672809     0.08640
N470        N  0.75798901  0.67785141  0.50827391    -0.35200
N471        N  0.74496559  0.65848288  0.54344233    -0.27380
C472        C  0.77299425  0.62662137  0.55851697    -0.02620
C473        C  0.80470330  0.62577964  0.53095650     0.05990
C474        C  0.79415023  0.65866140  0.49960810     0.04080
H475        H  0.76946226  0.60348078  0.58598079     0.09190
H476        H  0.81098093  0.66693330  0.47188963     0.08020
C477        C  0.94583038  0.79867549  0.56079749     0.04050
C478        C  0.94747295  0.84976672  0.54786731    -0.12100
C479        C  0.98166849  0.87077428  0.52856346     0.01550
C480        C  0.01403731  0.83831986  0.52087556    -0.10620
C481        C  0.01459556  0.78766558  0.53674754     0.04050
C482        C  0.97962163  0.76761191  0.55602580    -0.10040
H483        H  0.92241043  0.87376613  0.55589680     0.09640
H484        H  0.03974225  0.85334540  0.50414124     0.07170
H485        H  0.97925715  0.72950466  0.56940922     0.07020
N486        N  0.67804778  0.85595523  0.78177634    -0.26370
N487        N  0.63956849  0.86724983  0.77920775    -0.34220
C488        C  0.62739455  0.88736099  0.81483704     0.01980
C489        C  0.66003072  0.88900639  0.84084071     0.08000
C490        C  0.69157020  0.86873130  0.81889812    -0.05100
H491        H  0.59769281  0.90216783  0.82052771     0.08670
H492        H  0.72246921  0.86532803  0.82854539     0.09870
Cu493      Cu  0.60835261  0.86157341  0.72493407     0.44170
Cu494      Cu  0.71133512  0.82927889  0.73317976     0.41990
Cu495      Cu  0.66863874  0.83874220  0.63209828     0.43880
N496        N  0.58685921  0.86706218  0.66582602    -0.33750
N497        N  0.60864461  0.86156228  0.63221832    -0.28010
C498        C  0.58577963  0.87342040  0.59961222    -0.04110
C499        C  0.54791897  0.88637725  0.61353691     0.08110
C500        C  0.54966355  0.88166481  0.65552682     0.01910
H501        H  0.59600053  0.87281117  0.56818499     0.09560
H502        H  0.52609525  0.89018690  0.67720563     0.08640
N503        N  0.72737932  0.81500129  0.64325591    -0.35200
N504        N  0.74218220  0.81083408  0.68053160    -0.27380
C505        C  0.78092465  0.79739688  0.67824580    -0.02620
C506        C  0.79160409  0.79313741  0.63748735     0.05990
C507        C  0.75666234  0.80433358  0.61613782     0.04080
H508        H  0.80010819  0.79257525  0.70455582     0.09190
H509        H  0.75328933  0.80725568  0.58332949     0.08020
C510        C  0.95088021  0.70132303  0.03857301     0.04050
C511        C  0.94914255  0.75429528  0.03221321    -0.12100
C512        C  0.98398359  0.78529986  0.03498896     0.01550
C513        C  0.02181307  0.76071426  0.03772389    -0.10540
C514        C  0.02406450  0.70683568  0.04082786     0.04050
C515        C  0.98809048  0.67871078  0.04483965    -0.10040
H516        H  0.92028072  0.77107326  0.02570628     0.09640
H517        H  0.04929997  0.78296858  0.03814605     0.07170
H518        H  0.98880988  0.63832003  0.05261866     0.07020
N519        N  0.62544061  0.53314211  0.07280555    -0.26370
N520        N  0.60117661  0.51926512  0.04284726    -0.34220
C521        C  0.56305390  0.52933154  0.05377108     0.01980
C522        C  0.56339005  0.55004788  0.09244918     0.08000
C523        C  0.60333788  0.55169566  0.10365884    -0.05100
H524        H  0.53704416  0.02191926  0.03497489     0.08670
H525        H  0.61561615  0.56671161  0.13168319     0.09870
Cu526      Cu  0.61996461  0.98670236  0.98829247     0.44170
Cu527      Cu  0.68772876  0.53220057  0.06993094     0.41990
Cu528      Cu  0.72652061  0.47786509  0.97867604     0.43880
N529        N  0.64800694  0.95170822  0.93913415    -0.33750
N530        N  0.68744554  0.94729515  0.93693416    -0.28010
C531        C  0.69737262  0.92349641  0.90230471    -0.04110
C532        C  0.66252573  0.91247370  0.88136516     0.08110
C533        C  0.63165512  0.93089618  0.90549308     0.01910
H534        H  0.72786809  0.91629786  0.89256501     0.09560
H535        H  0.59984761  0.92978519  0.89892413     0.08640
N536        N  0.76101455  0.52001632  0.01806522    -0.35200
N537        N  0.74743126  0.53961831  0.05233758    -0.27380
C538        C  0.77615901  0.56998604  0.06818040    -0.02620
C539        C  0.80928582  0.57007146  0.04209291     0.05990
C540        C  0.79830700  0.53765125  0.01077035     0.04080
H541        H  0.77217579  0.59212855  0.09555071     0.09190
H542        H  0.81466806  0.53040253  0.98286399     0.08020
C543        C  0.12654469  0.76279771  0.54128446     0.04050
C544        C  0.08946256  0.78710071  0.54148368    -0.12100
C545        C  0.05337018  0.75927941  0.53729136     0.01550
C546        C  0.05503027  0.70536206  0.53579700    -0.10620
C547        C  0.09237744  0.67973719  0.53622963     0.04050
C548        C  0.12785783  0.70970802  0.53699863    -0.10040
H549        H  0.08904161  0.82821615  0.54518385     0.09640
H550        H  0.02722226  0.68380447  0.53499900     0.07170
H551        H  0.15701539  0.69221534  0.53533209     0.07020
N552        N  0.45112528  0.92276465  0.57191849    -0.26370
N553        N  0.47487055  0.93621187  0.54094956    -0.34220
C554        C  0.51305457  0.92473978  0.55062683     0.01980
C555        C  0.51321117  0.90361513  0.58961340     0.08000
C556        C  0.47354550  0.90314537  0.60221312    -0.05100
H557        H  0.53879434  0.93207387  0.53103397     0.08670
H558        H  0.46168002  0.88870806  0.63101813     0.09870
Cu559      Cu  0.45460027  0.97137044  0.48756486     0.44170
Cu560      Cu  0.38900913  0.92688050  0.57130985     0.41990
Cu561      Cu  0.34720022  0.98485282  0.48169490     0.43880
N562        N  0.42583429  0.51008164  0.44023911    -0.33750
N563        N  0.38648037  0.01611488  0.43904979    -0.28010
C564        C  0.37683045  0.54241649  0.40500673    -0.04110
C565        C  0.41176997  0.55333176  0.38353236     0.08110
C566        C  0.44231569  0.53226008  0.40667875     0.01910
H567        H  0.34646858  0.55139019  0.39597314     0.09560
H568        H  0.47405667  0.53241647  0.39944486     0.08640
N569        N  0.31363112  0.94292819  0.52361744    -0.35200
N570        N  0.32854698  0.92213169  0.55720794    -0.27380
C571        C  0.30043691  0.89135333  0.57460828    -0.02620
C572        C  0.26644070  0.89294230  0.55055772     0.05990
C573        C  0.27590354  0.92576410  0.51849931     0.04080
H574        H  0.30571611  0.86590377  0.60032386     0.09190
H575        H  0.25788454  0.93329450  0.49169533     0.08020
C576        C  0.13257541  0.66678480  0.06090941     0.04050
C577        C  0.12983904  0.61512291  0.05051872    -0.12100
C578        C  0.09471415  0.59414044  0.03369567     0.01550
C579        C  0.06263371  0.62715108  0.02615298    -0.10620
C580        C  0.06279030  0.67805774  0.04062415     0.04050
C581        C  0.09863350  0.69811465  0.05733294    -0.10040
H582        H  0.15505890  0.59102639  0.05802306     0.09640
H583        H  0.03659353  0.61246018  0.01036898     0.07170
H584        H  0.09996886  0.73679680  0.06875854     0.07020
N585        N  0.39857328  0.61366559  0.28375594    -0.26370
N586        N  0.43653638  0.59971673  0.28113251    -0.34220
C587        C  0.44769337  0.57837012  0.31689530     0.01980
C588        C  0.41501611  0.57843432  0.34313151     0.08000
C589        C  0.38442364  0.60119710  0.32118046    -0.05100
H590        H  0.47656380  0.56102256  0.32237887     0.08670
H591        H  0.35361004  0.60602670  0.33091652     0.09870
Cu592      Cu  0.46865769  0.60116217  0.22686526     0.44170
Cu593      Cu  0.36620265  0.64187335  0.23449290     0.41990
Cu594      Cu  0.40835795  0.61551841  0.13488375     0.43880
N595        N  0.49039284  0.59003889  0.16834019    -0.33750
N596        N  0.46817068  0.59267110  0.13497323    -0.28010
C597        C  0.49068864  0.57887819  0.10270107    -0.04110
C598        C  0.52884411  0.56750560  0.11651692     0.08110
C599        C  0.52762336  0.57518206  0.15818410     0.01910
H600        H  0.48009903  0.57744442  0.07152346     0.09560
H601        H  0.55165494  0.56896887  0.17976966     0.08640
N602        N  0.35087136  0.64443581  0.14379740    -0.35200
N603        N  0.33643854  0.65633163  0.18006309    -0.27380
C604        C  0.29870631  0.67334419  0.17580466    -0.02620
C605        C  0.28809770  0.67146807  0.13476211     0.05990
C606        C  0.32237702  0.65289422  0.11554561     0.04080
H607        H  0.28036126  0.68490922  0.20129462     0.09190
H608        H  0.32608402  0.64360998  0.08368766     0.08020
C609        C  0.20535059  0.68800322  0.05557058     0.24520
C610        C  0.17054524  0.68392432  0.07978594    -0.23590
C611        C  0.17430775  0.68142723  0.12235769     0.19430
C612        C  0.21230682  0.67961686  0.14047863     0.24460
C613        C  0.24766031  0.68073637  0.11621631    -0.23530
C614        C  0.24343760  0.68701035  0.07349773     0.19360
F615        F  0.27597988  0.68971523  0.04851144    -0.13490
F616        F  0.20244053  0.68877205  0.01417732    -0.15850
F617        F  0.21379478  0.67229255  0.18151467    -0.15850
F618        F  0.14106074  0.67541186  0.14622695    -0.13490
C619        C  0.19611832  0.78748501  0.51834936     0.24520
C620        C  0.16399254  0.79329764  0.54593625    -0.23590
C621        C  0.16745292  0.82953576  0.57737050     0.19430
C622        C  0.20169047  0.86076153  0.58000511     0.24460
C623        C  0.23268171  0.85641693  0.55122127    -0.23530
C624        C  0.23015992  0.81888502  0.52100323     0.19360
F625        F  0.26057310  0.81317960  0.49367935    -0.13490
F626        F  0.19389409  0.75298278  0.48771231    -0.15850
F627        F  0.20411354  0.89611432  0.60992089    -0.15850
F628        F  0.13766136  0.83475852  0.60547766    -0.13490
C629        C  0.91385721  0.62153387  0.01878030     0.24520
C630        C  0.91409767  0.66869444  0.03911640    -0.23590
C631        C  0.87986119  0.68285713  0.06144925     0.19430
C632        C  0.84592210  0.65078409  0.06298953     0.24460
C633        C  0.84585714  0.60319366  0.04299078    -0.23530
C634        C  0.88064510  0.58872253  0.02150049     0.19360
F635        F  0.88306990  0.54239244  0.00335642    -0.13490
F636        F  0.94575621  0.60724749  0.99566796    -0.15850
F637        F  0.81298583  0.66728129  0.08329582    -0.15850
F638        F  0.87941433  0.72736290  0.08248865    -0.13490
C639        C  0.90465159  0.80340316  0.62353346     0.24520
C640        C  0.90995508  0.78264899  0.58455172    -0.23590
C641        C  0.87686459  0.76063017  0.56467008     0.19430
C642        C  0.83852005  0.76224651  0.58256268     0.24460
C643        C  0.83270750  0.78574461  0.62063201    -0.23530
C644        C  0.86651431  0.80513660  0.64138665     0.19360
F645        F  0.86243795  0.83033338  0.67716526    -0.13490
F646        F  0.93594345  0.82682783  0.64247891    -0.15850
F647        F  0.80682123  0.74286914  0.56185502    -0.15850
F648        F  0.88114334  0.74133699  0.52656469    -0.13490
C649        C  0.86537286  0.59103878  0.56587238     0.24520
C650        C  0.84026908  0.59288896  0.53155818    -0.23590
C651        C  0.85051282  0.56524826  0.49648860     0.19430
C652        C  0.88593217  0.53727983  0.49525067     0.24460
C653        C  0.91187418  0.53690058  0.52891179    -0.23530
C654        C  0.90114870  0.56342651  0.56447974     0.19360
F655        F  0.92525291  0.56236406  0.59784307    -0.13490
F656        F  0.85603868  0.61751184  0.60003510    -0.15850
F657        F  0.89548398  0.01168651  0.46071720    -0.15850
F658        F  0.82603115  0.56512699  0.46341186    -0.13490
C659        C  0.82825365  0.92356377  0.06404003     0.24520
C660        C  0.82220111  0.94267037  0.10369294    -0.23590
C661        C  0.85554205  0.96374287  0.12439007     0.19430
C662        C  0.89445400  0.96017524  0.10794857     0.24460
C663        C  0.90057185  0.93618601  0.07031224    -0.23530
C664        C  0.86690218  0.92089897  0.04750661     0.19360
F665        F  0.87183386  0.89918759  0.01031561    -0.13490
F666        F  0.79756779  0.90304098  0.04234716    -0.15850
F667        F  0.92629563  0.97617564  0.13037143    -0.15850
F668        F  0.85082127  0.98579745  0.16141666    -0.13490
C669        C  0.19401859  0.84365137  0.01995732     0.24520
C670        C  0.22944946  0.86115233  0.03875184    -0.23590
C671        C  0.22975490  0.90983986  0.05686238     0.19430
C672        C  0.19543961  0.94034828  0.05583936     0.24460
C673        C  0.16043756  0.92317789  0.03602005    -0.23530
C674        C  0.16029248  0.87459105  0.01791111     0.19360
F675        F  0.12761675  0.85716200  0.99737728    -0.13490
F676        F  0.19161603  0.79620821  0.00365702    -0.15850
F677        F  0.19635505  0.48634110  0.07476753    -0.15850
F678        F  0.26348313  0.92882787  0.07450343    -0.13490
C679        C  0.21339122  0.50770658  0.63181017     0.24520
C680        C  0.24768721  0.52297654  0.60886387    -0.23590
C681        C  0.24277371  0.53404450  0.56684074     0.19430
C682        C  0.20448125  0.53449697  0.54951362     0.24460
C683        C  0.17017410  0.52494684  0.57370287    -0.23530
C684        C  0.17497573  0.50925694  0.61444588     0.19360
F685        F  0.14226021  0.49961240  0.63835743    -0.13490
F686        F  0.21662000  0.49292986  0.67153889    -0.15850
F687        F  0.20051299  0.54934271  0.50980208    -0.15850
F688        F  0.27424411  0.54897352  0.54290595    -0.13490
loop_ 
_geom_bond_atom_site_label_1 
_geom_bond_atom_site_label_2 
_geom_bond_distance 
_geom_bond_site_symmetry_2 
_ccdc_geom_bond_type 
C1            C2   1.404       .  A
C1            C6   1.396       .  A
C1          C339   1.479       .  S
C2            C3   1.416       .  A
C2          H351   1.080   1_545  S
C3            C4   1.416       .  A
C3          C446   1.503       .  S
C4            C5   1.404       .  A
C4            H8   1.079       .  S
C5            C6   1.403       .  A
C5          C203   1.504       .  S
C6            H9   1.079       .  S
H7          C346   1.080       .  S
N10          N11   1.322       .  A
N10          C14   1.344       .  A
N10         Cu18   2.079       .  S
N11          C12   1.346       .  A
N11         Cu17   2.069       .  S
C12          C13   1.382       .  A
C12          H15   1.081       .  S
C13          C14   1.385       .  A
C13          C56   1.471       .  S
C14          H16   1.081       .  S
Cu17         N20   2.069       .  S
Cu18         N28   2.079       .  S
Cu19         N21   2.078       .  S
Cu19         N27   2.078       .  S
N20          N21   1.323       .  A
N20          C24   1.344       .  A
N21          C22   1.346       .  A
C22          C23   1.383       .  A
C22          H25   1.082       .  S
C23          C24   1.381       .  A
C23         C112   1.468       .  S
C24          H26   1.082       .  S
N27          N28   1.320       .  A
N27          C31   1.345       .  A
N28          C29   1.344       .  A
C29          C30   1.391       .  A
C29          H32   1.080       .  S
C30          C31   1.392       .  A
C30         C336   1.496       .  S
C31          H33   1.080       .  S
C34          C35   1.393       .  A
C34         C383   1.396       .  A
C34         C329   1.484       .  S
C35          C36   1.405       .  A
C35          H40   1.082       .  S
C36         C381   1.412       .  A
C36          C69   1.502       .  S
C37          C38   1.421       .  A
C37         C380   1.412   1_545  A
C37          H41   1.079       .  S
C38          C39   1.409       .  A
C38         C234   1.501       .  S
C39         C378   1.396   1_545  A
C39          H42   1.081       .  S
N43          N44   1.325       .  A
N43          C47   1.343       .  A
N43         Cu51   2.071       .  S
N44          C45   1.347       .  A
N44         Cu50   2.089   1_554  S
C45          C46   1.383       .  A
C45          H48   1.082       .  S
C46          C47   1.379       .  A
C46          C89   1.468       .  S
C47          H49   1.082       .  S
Cu50         N53   2.088       .  S
Cu51         N61   2.069       .  S
Cu52         N54   2.051       .  S
Cu52         N60   2.050   1_556  S
N53          N54   1.321       .  A
N53          C57   1.349       .  A
N54          C55   1.341       .  A
C55          C56   1.379       .  A
C55          H58   1.082       .  S
C56          C57   1.388       .  A
C57          H59   1.081       .  S
N60          N61   1.318       .  A
N60          C64   1.338       .  A
N61          C62   1.346       .  A
C62          C63   1.390       .  A
C62          H65   1.081       .  S
C63          C64   1.383       .  A
C63         C326   1.481       .  S
C64          H66   1.081   1_554  S
C67          C68   1.408       .  A
C67          C72   1.402       .  A
C67         C319   1.486       .  S
C68          C69   1.414   1_655  A
C68          H73   1.081       .  S
C69          C70   1.416       .  A
C70          C71   1.400   1_455  A
C70          H74   1.080       .  S
C71          C72   1.404       .  A
C71         C168   1.504       .  S
C72          H75   1.081       .  S
N76          N77   1.322       .  A
N76          C80   1.344       .  A
N76         Cu84   2.081       .  S
N77          C78   1.346       .  A
N77         Cu83   2.068       .  S
C78          C79   1.382       .  A
C78          H81   1.081       .  S
C79          C80   1.385       .  A
C79         C122   1.471       .  S
C80          H82   1.081       .  S
Cu83         N86   2.069       .  S
Cu84         N94   2.081       .  S
Cu85         N87   2.077       .  S
Cu85         N93   2.077       .  S
N86          N87   1.323       .  A
N86          C90   1.344       .  A
N87          C88   1.346       .  A
C88          C89   1.383       .  A
C88          H91   1.082       .  S
C89          C90   1.381       .  A
C90          H92   1.082       .  S
N93          N94   1.321       .  A
N93          C97   1.345       .  A
N94          C95   1.346       .  A
C95          C96   1.390       .  A
C95          H98   1.081       .  S
C96          C97   1.391       .  A
C96         C316   1.493       .  S
C97          H99   1.080       .  S
C100        C105   1.392       .  A
C100        C445   1.394       .  A
C100        C653   1.476       .  S
C101        C444   1.394       .  A
C101        C446   1.411   1_655  A
C101        H106   1.081       .  S
C102        C103   1.414       .  A
C102        C445   1.411   1_455  A
C102        C347   1.503       .  S
C103        C104   1.416   1_455  A
C103        H107   1.078       .  S
C104        C105   1.405       .  A
C104        C135   1.497       .  S
C105        H108   1.082       .  S
N109        N110   1.325       .  A
N109        C113   1.344       .  A
N109       Cu117   2.073       .  S
N110        C111   1.347       .  A
N110       Cu116   2.087       .  S
C111        C112   1.383       .  A
C111        H114   1.082       .  S
C112        C113   1.380       .  A
C113        H115   1.082       .  S
Cu116       N119   2.086       .  S
Cu117       N127   2.072       .  S
Cu118       N120   2.052       .  S
Cu118       N126   2.051       .  S
N119        N120   1.321       .  A
N119        C123   1.348       .  A
N120        C121   1.341       .  A
C121        C122   1.379       .  A
C121        H124   1.082       .  S
C122        C123   1.388       .  A
C123        H125   1.082       .  S
N126        N127   1.320       .  A
N126        C130   1.339       .  A
N127        C128   1.348       .  A
C128        C129   1.385       .  A
C128        H131   1.082       .  S
C129        C130   1.378       .  A
C129        C306   1.470       .  S
C130        H132   1.082       .  S
C133        C134   1.395       .  A
C133        C138   1.403       .  A
C133        C296   1.476       .  S
C134        C135   1.402       .  A
C134        H139   1.082       .  S
C135        C136   1.402   1_655  A
C136        C137   1.415       .  A
C136        H140   1.081       .  S
C137        C138   1.414   1_455  A
C137        C201   1.495       .  S
C138        H141   1.082       .  S
N142        N143   1.320       .  A
N142        C146   1.342       .  A
N142       Cu150   2.066       .  S
N143        C144   1.347       .  A
N143       Cu149   2.068       .  S
C144        C145   1.384       .  A
C144        H147   1.082       .  S
C145        C146   1.383       .  A
C145        C188   1.470       .  S
C146        H148   1.082       .  S
Cu149       N152   2.069       .  S
Cu150       N160   2.066       .  S
Cu151       N153   2.090       .  S
Cu151       N159   2.090       .  S
N152        N153   1.324       .  A
N152        C156   1.343       .  A
N153        C154   1.348       .  A
C154        C155   1.385       .  A
C154        H157   1.082       .  S
C155        C156   1.379       .  A
C155        C211   1.470       .  S
C156        H158   1.082       .  S
N159        N160   1.321       .  A
N159        C163   1.348       .  A
N160        C161   1.342       .  A
C161        C162   1.385       .  A
C161        H164   1.081       .  S
C162        C163   1.391       .  A
C162        C299   1.488       .  S
C163        H165   1.082       .  S
C166        C167   1.398       .  A
C166        C171   1.393       .  A
C166        C286   1.484       .  S
C167        C168   1.411       .  A
C167        H172   1.081       .  S
C168        C169   1.422   1_655  A
C169        C170   1.412       .  A
C169        H173   1.079       .  S
C170        C171   1.403   1_455  A
C170        C236   1.499       .  S
C171        H174   1.082       .  S
N175        N176   1.325       .  A
N175        C179   1.344       .  A
N175       Cu183   2.075       .  S
N176        C177   1.346       .  A
N176       Cu526   2.083   1_544  S
C177        C178   1.382       .  A
C177        H524   1.082       .  S
C178        C179   1.382       .  A
C178        C254   1.470       .  S
C179        H181   1.082       .  S
H180        C521   1.082       .  S
Cu182       N185   2.082       .  S
Cu182       N520   2.083   1_556  S
Cu183       N193   2.073       .  S
Cu184       N192   2.053   1_566  S
Cu184       N530   2.053       .  S
N185        N186   1.321       .  A
N185        C189   1.348       .  A
N186        C187   1.341       .  A
N186       Cu528   2.053       .  S
C187        C188   1.380       .  A
C187        H190   1.082       .  S
C188        C189   1.387       .  A
C189        H191   1.082       .  S
N192        N193   1.318       .  A
N192        C196   1.339       .  A
N193        C194   1.346       .  A
C194        C195   1.391       .  A
C194        H197   1.080       .  S
C195        C196   1.385       .  A
C195        C289   1.486       .  S
C196        H198   1.081   1_554  S
C199        C200   1.394       .  A
C199        C204   1.396       .  A
C199        C276   1.481       .  S
C200        C201   1.405       .  A
C200        H205   1.082       .  S
C201        C202   1.411       .  A
C202        C203   1.418       .  A
C202        H206   1.079       .  S
C203        C204   1.410       .  A
C204        H207   1.078       .  S
N208        N209   1.324       .  A
N208        C212   1.343       .  A
N208       Cu216   2.072       .  S
N209        C210   1.347       .  A
N209       Cu215   2.082       .  S
C210        C211   1.383       .  A
C210        H213   1.082       .  S
C211        C212   1.381       .  A
C212        H214   1.082       .  S
Cu215       N562   2.081       .  S
Cu216       N226   2.070       .  S
Cu217       N219   2.062       .  S
Cu217       N225   2.061       .  S
N218        N563   1.322       .  A
N218        C222   1.347       .  A
N218       Cu559   2.081   1_545  S
N219        N562   1.322       .  A
N219        C564   1.343       .  A
C220        C221   1.381       .  A
C220        H223   1.082       .  S
C220        N563   1.343       .  A
C221        C222   1.385       .  A
C221        C244   1.471       .  S
C222        H224   1.082       .  S
N225        N226   1.321       .  A
N225        C229   1.341       .  A
N226        C227   1.346       .  A
C227        C228   1.382       .  A
C227        H230   1.082       .  S
C228        C229   1.379       .  A
C228        C279   1.466       .  S
C229        H231   1.082       .  S
C232        C233   1.397       .  A
C232        C237   1.406       .  A
C232        C266   1.477       .  S
C233        C234   1.404       .  A
C233        H238   1.082       .  S
C234        C235   1.400       .  A
C235        C236   1.416       .  A
C235        H239   1.080       .  S
C236        C237   1.413       .  A
C237        H240   1.082       .  S
N241        N242   1.322       .  A
N241        C245   1.345       .  A
N241       Cu249   2.075       .  S
N242        C243   1.345       .  A
N242       Cu248   2.068       .  S
C243        C244   1.382       .  A
C243        H246   1.082       .  S
C244        C245   1.384       .  A
C245        H247   1.082       .  S
Cu248       N251   2.069       .  S
Cu249       N259   2.075       .  S
Cu250       N252   2.085       .  S
Cu250       N258   2.085       .  S
N251        N252   1.323       .  A
N251        C255   1.344       .  A
N252        C253   1.347       .  A
C253        C254   1.384       .  A
C253        H256   1.082       .  S
C254        C255   1.381       .  A
C255        H257   1.082       .  S
N258        N259   1.320       .  A
N258        C262   1.346       .  A
N259        C260   1.344       .  A
C260        C261   1.391       .  A
C260        H263   1.079       .  S
C261        C262   1.395       .  A
C261        C269   1.500       .  S
C262        H264   1.080       .  S
C265        C266   1.403       .  A
C265        C270   1.400       .  A
C265        F272   1.358       .  S
C266        C267   1.400       .  A
C267        C268   1.401       .  A
C267        F274   1.358       .  S
C268        C269   1.416       .  A
C268        F273   1.355       .  S
C269        C270   1.413       .  A
C270        F271   1.355       .  S
C275        C276   1.407       .  A
C275        C280   1.395       .  A
C275        F282   1.358       .  S
C276        C277   1.410       .  A
C277        C278   1.398       .  A
C277        F284   1.358       .  S
C278        C279   1.400       .  A
C278        F283   1.356       .  S
C279        C280   1.403       .  A
C280        F281   1.358       .  S
C285        C286   1.407       .  A
C285        C290   1.393       .  A
C285        F292   1.359   1_554  S
C286        C287   1.406       .  A
C287        C288   1.399       .  A
C287        F294   1.358       .  S
C288        C289   1.411       .  A
C288        F293   1.356       .  S
C289        C290   1.409       .  A
C290        F291   1.357       .  S
C295        C296   1.403       .  A
C295        C300   1.396       .  A
C295        F302   1.358       .  S
C296        C297   1.403       .  A
C297        C298   1.403       .  A
C297        F304   1.358       .  S
C298        C299   1.409       .  A
C298        F303   1.354       .  S
C299        C300   1.410       .  A
C300        F301   1.357       .  S
C305        C306   1.403       .  A
C305        C310   1.399       .  A
C305        F312   1.358       .  S
C306        C307   1.406       .  A
C307        C308   1.394       .  A
C307        F314   1.358       .  S
C308        C309   1.403       .  A
C308        F657   1.358       .  S
C309        C310   1.408       .  A
C309        C444   1.476       .  S
C310        F311   1.358       .  S
F313        C652   1.358       .  S
C315        C316   1.410       .  A
C315        C320   1.396       .  A
C315        F322   1.356       .  S
C316        C317   1.413       .  A
C317        C318   1.405       .  A
C317        F324   1.357       .  S
C318        C319   1.403       .  A
C318        F323   1.357       .  S
C319        C320   1.406       .  A
C320        F321   1.359       .  S
C325        C326   1.407       .  A
C325        C330   1.391       .  A
C325        F332   1.356       .  S
C326        C327   1.409       .  A
C327        C328   1.400       .  A
C327        F334   1.357       .  S
C328        C329   1.408       .  A
C328        F677   1.358       .  S
C329        C330   1.407       .  A
C330        F331   1.359   1_554  S
F333        C672   1.358       .  S
C335        C336   1.414       .  A
C335        C340   1.403       .  A
C335        F342   1.356   1_545  S
C336        C337   1.412       .  A
C337        C338   1.398       .  A
C337        F344   1.356       .  S
C338        C339   1.405       .  A
C338        F343   1.359       .  S
C339        C340   1.400       .  A
C340        F341   1.357   1_545  S
C345        C346   1.404       .  A
C345        C350   1.396       .  A
C345        C683   1.479       .  S
C346        C347   1.416       .  A
C347        C348   1.416       .  A
C348        C349   1.404       .  A
C348        H352   1.079       .  S
C349        C350   1.403       .  A
C349        C547   1.504       .  S
C350        H353   1.079       .  S
N354        N355   1.322       .  A
N354        C358   1.344       .  A
N354       Cu362   2.079       .  S
N355        C356   1.346       .  A
N355       Cu361   2.069       .  S
C356        C357   1.382       .  A
C356        H359   1.081       .  S
C357        C358   1.385       .  A
C357        C400   1.471       .  S
C358        H360   1.081       .  S
Cu361       N364   2.069       .  S
Cu362       N372   2.079       .  S
Cu363       N365   2.078       .  S
Cu363       N371   2.078       .  S
N364        N365   1.323       .  A
N364        C368   1.344       .  A
N365        C366   1.346       .  A
C366        C367   1.383       .  A
C366        H369   1.082       .  S
C367        C368   1.381       .  A
C367        C456   1.468       .  S
C368        H370   1.082       .  S
N371        N372   1.320       .  A
N371        C375   1.345       .  A
N372        C373   1.344       .  A
C373        C374   1.391       .  A
C373        H376   1.080       .  S
C374        C375   1.392       .  A
C374        C680   1.496       .  S
C375        H377   1.080       .  S
C378        C379   1.393       .  A
C378        C673   1.484       .  S
C379        C380   1.405       .  A
C379        H384   1.082       .  S
C380        C413   1.502       .  S
C381        C382   1.421       .  A
C381        H385   1.079       .  S
C382        C383   1.409       .  A
C382        C578   1.501       .  S
C383        H386   1.081       .  S
N387        N388   1.325       .  A
N387        C391   1.343       .  A
N387       Cu395   2.071       .  S
N388        C389   1.347       .  A
N388       Cu394   2.089   1_554  S
C389        C390   1.383       .  A
C389        H392   1.082       .  S
C390        C391   1.379       .  A
C390        C433   1.468       .  S
C391        H393   1.082       .  S
Cu394       N397   2.088       .  S
Cu395       N405   2.069       .  S
Cu396       N398   2.051       .  S
Cu396       N404   2.050   1_556  S
N397        N398   1.321       .  A
N397        C401   1.349       .  A
N398        C399   1.341       .  A
C399        C400   1.379       .  A
C399        H402   1.082       .  S
C400        C401   1.388       .  A
C401        H403   1.081       .  S
N404        N405   1.318       .  A
N404        C408   1.338       .  A
N405        C406   1.346       .  A
C406        C407   1.390       .  A
C406        H409   1.081       .  S
C407        C408   1.383       .  A
C407        C670   1.481       .  S
C408        H410   1.081   1_554  S
C411        C412   1.408       .  A
C411        C416   1.402       .  A
C411        C663   1.486       .  S
C412        C413   1.414   1_655  A
C412        H417   1.081       .  S
C413        C414   1.416       .  A
C414        C415   1.400   1_455  A
C414        H418   1.080       .  S
C415        C416   1.404       .  A
C415        C512   1.504       .  S
C416        H419   1.081       .  S
N420        N421   1.322       .  A
N420        C424   1.344       .  A
N420       Cu428   2.081       .  S
N421        C422   1.346       .  A
N421       Cu427   2.068       .  S
C422        C423   1.382       .  A
C422        H425   1.081       .  S
C423        C424   1.385       .  A
C423        C466   1.471       .  S
C424        H426   1.081       .  S
Cu427       N430   2.069       .  S
Cu428       N438   2.081       .  S
Cu429       N431   2.077       .  S
Cu429       N437   2.077       .  S
N430        N431   1.323       .  A
N430        C434   1.344       .  A
N431        C432   1.346       .  A
C432        C433   1.383       .  A
C432        H435   1.082       .  S
C433        C434   1.381       .  A
C434        H436   1.082       .  S
N437        N438   1.321       .  A
N437        C441   1.345       .  A
N438        C439   1.346       .  A
C439        C440   1.390       .  A
C439        H442   1.081       .  S
C440        C441   1.391       .  A
C440        C660   1.493       .  S
C441        H443   1.080       .  S
C444        C449   1.392   1_545  A
C445        H450   1.081       .  S
C446        C447   1.414   1_545  A
C447        C448   1.416   1_455  A
C447        H451   1.078       .  S
C448        C449   1.405       .  A
C448        C479   1.497       .  S
C449        H452   1.082       .  S
N453        N454   1.325       .  A
N453        C457   1.344       .  A
N453       Cu461   2.073       .  S
N454        C455   1.347       .  A
N454       Cu460   2.087       .  S
C455        C456   1.383       .  A
C455        H458   1.082       .  S
C456        C457   1.380       .  A
C457        H459   1.082       .  S
Cu460       N463   2.086       .  S
Cu461       N471   2.072       .  S
Cu462       N464   2.052       .  S
Cu462       N470   2.051       .  S
N463        N464   1.321       .  A
N463        C467   1.348       .  A
N464        C465   1.341       .  A
C465        C466   1.379       .  A
C465        H468   1.082       .  S
C466        C467   1.388       .  A
C467        H469   1.082       .  S
N470        N471   1.320       .  A
N470        C474   1.339       .  A
N471        C472   1.348       .  A
C472        C473   1.385       .  A
C472        H475   1.082       .  S
C473        C474   1.378       .  A
C473        C650   1.470       .  S
C474        H476   1.082       .  S
C477        C478   1.395       .  A
C477        C482   1.403       .  A
C477        C640   1.476       .  S
C478        C479   1.402       .  A
C478        H483   1.082       .  S
C479        C480   1.402   1_655  A
C480        C481   1.415       .  A
C480        H484   1.081       .  S
C481        C482   1.414   1_455  A
C481        C545   1.495       .  S
C482        H485   1.082       .  S
N486        N487   1.320       .  A
N486        C490   1.342       .  A
N486       Cu494   2.066       .  S
N487        C488   1.347       .  A
N487       Cu493   2.068       .  S
C488        C489   1.384       .  A
C488        H491   1.082       .  S
C489        C490   1.383       .  A
C489        C532   1.470       .  S
C490        H492   1.082       .  S
Cu493       N496   2.069       .  S
Cu494       N504   2.066       .  S
Cu495       N497   2.090       .  S
Cu495       N503   2.090       .  S
N496        N497   1.324       .  A
N496        C500   1.343       .  A
N497        C498   1.348       .  A
C498        C499   1.385       .  A
C498        H501   1.082       .  S
C499        C500   1.379       .  A
C499        C555   1.470       .  S
C500        H502   1.082       .  S
N503        N504   1.321       .  A
N503        C507   1.348       .  A
N504        C505   1.342       .  A
C505        C506   1.385       .  A
C505        H508   1.081       .  S
C506        C507   1.391       .  A
C506        C643   1.488       .  S
C507        H509   1.082       .  S
C510        C511   1.398       .  A
C510        C515   1.393       .  A
C510        C630   1.484       .  S
C511        C512   1.411       .  A
C511        H516   1.081       .  S
C512        C513   1.422   1_655  A
C513        C514   1.412       .  A
C513        H517   1.079       .  S
C514        C515   1.403   1_455  A
C514        C580   1.499       .  S
C515        H518   1.082       .  S
N519        N520   1.325       .  A
N519        C523   1.344       .  A
N519       Cu527   2.075       .  S
N520        C521   1.346       .  A
C521        C522   1.382       .  A
C522        C523   1.382       .  A
C522        C598   1.470       .  S
C523        H525   1.082       .  S
Cu526       N529   2.082       .  S
Cu527       N537   2.073       .  S
Cu528       N536   2.053   1_556  S
N529        N530   1.321       .  A
N529        C533   1.348       .  A
N530        C531   1.341       .  A
C531        C532   1.380       .  A
C531        H534   1.082       .  S
C532        C533   1.387       .  A
C533        H535   1.082       .  S
N536        N537   1.318       .  A
N536        C540   1.339       .  A
N537        C538   1.346       .  A
C538        C539   1.391       .  A
C538        H541   1.080       .  S
C539        C540   1.385       .  A
C539        C633   1.486       .  S
C540        H542   1.081   1_554  S
C543        C544   1.394       .  A
C543        C548   1.396       .  A
C543        C620   1.481       .  S
C544        C545   1.405       .  A
C544        H549   1.082       .  S
C545        C546   1.411       .  A
C546        C547   1.418       .  A
C546        H550   1.079       .  S
C547        C548   1.410       .  A
C548        H551   1.078       .  S
N552        N553   1.324       .  A
N552        C556   1.343       .  A
N552       Cu560   2.072       .  S
N553        C554   1.347       .  A
N553       Cu559   2.082       .  S
C554        C555   1.383       .  A
C554        H557   1.082       .  S
C555        C556   1.381       .  A
C556        H558   1.082       .  S
Cu560       N570   2.070       .  S
Cu561       N563   2.062   1_565  S
Cu561       N569   2.061       .  S
N562        C566   1.347       .  A
C564        C565   1.381       .  A
C564        H567   1.082       .  S
C565        C566   1.385       .  A
C565        C588   1.471       .  S
C566        H568   1.082       .  S
N569        N570   1.321       .  A
N569        C573   1.341       .  A
N570        C571   1.346       .  A
C571        C572   1.382       .  A
C571        H574   1.082       .  S
C572        C573   1.379       .  A
C572        C623   1.466       .  S
C573        H575   1.082       .  S
C576        C577   1.397       .  A
C576        C581   1.406       .  A
C576        C610   1.477       .  S
C577        C578   1.404       .  A
C577        H582   1.082       .  S
C578        C579   1.400       .  A
C579        C580   1.416       .  A
C579        H583   1.080       .  S
C580        C581   1.413       .  A
C581        H584   1.082       .  S
N585        N586   1.322       .  A
N585        C589   1.345       .  A
N585       Cu593   2.075       .  S
N586        C587   1.345       .  A
N586       Cu592   2.068       .  S
C587        C588   1.382       .  A
C587        H590   1.082       .  S
C588        C589   1.384       .  A
C589        H591   1.082       .  S
Cu592       N595   2.069       .  S
Cu593       N603   2.075       .  S
Cu594       N596   2.085       .  S
Cu594       N602   2.085       .  S
N595        N596   1.323       .  A
N595        C599   1.344       .  A
N596        C597   1.347       .  A
C597        C598   1.384       .  A
C597        H600   1.082       .  S
C598        C599   1.381       .  A
C599        H601   1.082       .  S
N602        N603   1.320       .  A
N602        C606   1.346       .  A
N603        C604   1.344       .  A
C604        C605   1.391       .  A
C604        H607   1.079       .  S
C605        C606   1.395       .  A
C605        C613   1.500       .  S
C606        H608   1.080       .  S
C609        C610   1.403       .  A
C609        C614   1.400       .  A
C609        F616   1.358       .  S
C610        C611   1.400       .  A
C611        C612   1.401       .  A
C611        F618   1.358       .  S
C612        C613   1.416       .  A
C612        F617   1.355       .  S
C613        C614   1.413       .  A
C614        F615   1.355       .  S
C619        C620   1.407       .  A
C619        C624   1.395       .  A
C619        F626   1.358       .  S
C620        C621   1.410       .  A
C621        C622   1.398       .  A
C621        F628   1.358       .  S
C622        C623   1.400       .  A
C622        F627   1.356       .  S
C623        C624   1.403       .  A
C624        F625   1.358       .  S
C629        C630   1.407       .  A
C629        C634   1.393       .  A
C629        F636   1.359   1_554  S
C630        C631   1.406       .  A
C631        C632   1.399       .  A
C631        F638   1.358       .  S
C632        C633   1.411       .  A
C632        F637   1.356       .  S
C633        C634   1.409       .  A
C634        F635   1.357       .  S
C639        C640   1.403       .  A
C639        C644   1.396       .  A
C639        F646   1.358       .  S
C640        C641   1.403       .  A
C641        C642   1.403       .  A
C641        F648   1.358       .  S
C642        C643   1.409       .  A
C642        F647   1.354       .  S
C643        C644   1.410       .  A
C644        F645   1.357       .  S
C649        C650   1.403       .  A
C649        C654   1.399       .  A
C649        F656   1.358       .  S
C650        C651   1.406       .  A
C651        C652   1.394       .  A
C651        F658   1.358       .  S
C652        C653   1.403       .  A
C653        C654   1.408       .  A
C654        F655   1.358       .  S
C659        C660   1.410       .  A
C659        C664   1.396       .  A
C659        F666   1.356       .  S
C660        C661   1.413       .  A
C661        C662   1.405       .  A
C661        F668   1.357       .  S
C662        C663   1.403       .  A
C662        F667   1.357       .  S
C663        C664   1.406       .  A
C664        F665   1.359       .  S
C669        C670   1.407       .  A
C669        C674   1.391       .  A
C669        F676   1.356       .  S
C670        C671   1.409       .  A
C671        C672   1.400       .  A
C671        F678   1.357       .  S
C672        C673   1.408       .  A
C673        C674   1.407       .  A
C674        F675   1.359   1_554  S
C679        C680   1.414       .  A
C679        C684   1.403       .  A
C679        F686   1.356       .  S
C680        C681   1.412       .  A
C681        C682   1.398       .  A
C681        F688   1.356       .  S
C682        C683   1.405       .  A
C682        F687   1.359       .  S
C683        C684   1.400       .  A
C684        F685   1.357       .  S
