geometry optimzed in LAMMPS
_audit_creation_date              2020-11-30 
_audit_creation_method            'lammps2cif' 
_symmetry_space_group_name_H-M    'P1' 
_symmetry_Int_Tables_number       1 
_symmetry_cell_setting            triclinic 
loop_ 
_symmetry_equiv_pos_as_xyz 
  x,y,z 
_cell_length_a                    29.81294424 
_cell_length_b                    36.29653214690967 
_cell_length_c                    35.43371759421628 
_cell_angle_alpha                 90.04349867810836 
_cell_angle_beta                  89.84328323129154 
_cell_angle_gamma                 90.31091787585937 
loop_ 
_atom_site_label 
_atom_site_type_symbol 
_atom_site_fract_x 
_atom_site_fract_y 
_atom_site_fract_z 
_atom_site_charge 
C1          C  0.04233068  0.09572243  0.08592187     0.04100
C2          C  0.06037539  0.09121141  0.04973519    -0.12100
C3          C  0.04579804  0.06294250  0.02625545     0.01600
C4          C  0.01114530  0.03994794  0.03762716    -0.10600
C5          C  0.99262651  0.04295048  0.07393741     0.04000
C6          C  0.00845568  0.07086366  0.09866169    -0.10000
H7          H  0.08823088  0.10837776  0.04048854     0.09600
H8          H  0.00077001  0.01771520  0.01900857     0.07200
H9          H  0.99579157  0.07252168  0.12726276     0.07000
Zn10       Zn  0.86151880  0.39334516  0.08932329     1.49700
Zn11       Zn  0.95216933  0.43212815  0.06381421     1.49400
Zn12       Zn  0.86565370  0.43331639  0.01090207     1.49100
Zn13       Zn  0.86561392  0.48199890  0.08589857     1.49500
O14         O  0.88609047  0.43558932  0.06290294    -1.83200
O15         O  0.91237088  0.36212933  0.10689276    -0.76200
O16         O  0.97690833  0.42428986  0.01199395    -0.73700
O17         O  0.83389058  0.38635302  0.00116255    -0.73200
O18         O  0.97721512  0.38957484  0.09390916    -0.73900
O19         O  0.82415429  0.35880834  0.05636778    -0.73500
O20         O  0.91675694  0.43012537  0.47561903    -0.74000
O21         O  0.82026009  0.00592623  0.04982000    -0.73400
O22         O  0.97789033  0.48029161  0.08011426    -0.74200
O23         O  0.82548979  0.47498167  0.49584617    -0.73600
O24         O  0.91970640  0.01812619  0.08782591    -0.74000
O25         O  0.83690166  0.47161481  0.13895350    -0.73900
O26         O  0.83024974  0.41036978  0.13698319    -0.73700
C27         C  0.95504558  0.36309434  0.10826334     0.78100
C28         C  0.95841086  0.42455179  0.47982321     0.78500
C29         C  0.82010639  0.35917699  0.02057490     0.77500
C30         C  0.80937863  0.00134355  0.01513526     0.77900
C31         C  0.96183061  0.01252629  0.08408071     0.79000
C32         C  0.82506245  0.44100527  0.15425507     0.78100
C33         C  0.76303051  0.26783067  0.49760948     0.04100
C34         C  0.77725022  0.29910791  0.01782477    -0.12100
C35         C  0.80273014  0.32663657  0.50000619     0.01600
C36         C  0.81517655  0.32197559  0.46206505    -0.10600
C37         C  0.80287230  0.29056006  0.44171670     0.04000
C38         C  0.77583710  0.26354541  0.45930683    -0.10000
H39         H  0.76734486  0.30246180  0.04709083     0.09600
H40         H  0.83644382  0.34233944  0.44840898     0.07200
H41         H  0.76545264  0.23930875  0.44368314     0.07000
C42         C  0.97703939  0.33489783  0.13148924     0.04100
C43         C  0.95610260  0.32786578  0.16600671    -0.12100
C44         C  0.97200098  0.30104332  0.19010195     0.01600
C45         C  0.00932628  0.28068708  0.18032193    -0.10600
C46         C  0.03244761  0.28778569  0.14648288     0.04000
C47         C  0.01618728  0.31502846  0.12139677    -0.10000
H48         H  0.92691770  0.34367534  0.17449830     0.09600
H49         H  0.02130010  0.25992744  0.19985186     0.07200
H50         H  0.03336154  0.32057908  0.09501232     0.07000
Zn51       Zn  0.21099412  0.17738323  0.15415874     1.49700
Zn52       Zn  0.13757623  0.22738915  0.19310684     1.49400
Zn53       Zn  0.11824802  0.19719105  0.11042888     1.49100
Zn54       Zn  0.11453387  0.14367081  0.17967749     1.49500
O55         O  0.14607024  0.18642054  0.15875349    -1.83200
O56         O  0.24755519  0.21472524  0.18487028    -0.73800
O57         O  0.10024685  0.26607718  0.16933401    -0.73700
O58         O  0.16710373  0.20130943  0.07002486    -0.73200
O59         O  0.19484895  0.24819436  0.21284838    -0.73900
O60         O  0.22898441  0.18011265  0.09815673    -0.73500
O61         O  0.07617473  0.24183566  0.11513626    -0.74000
O62         O  0.07412420  0.11572742  0.14409540    -0.73400
O63         O  0.10333651  0.21234868  0.23906226    -0.74200
O64         O  0.07965324  0.15309160  0.09480622    -0.73600
O65         O  0.08001626  0.15580079  0.22494726    -0.74000
O66         O  0.15934288  0.10955024  0.19969814    -0.73900
O67         O  0.22605706  0.12770646  0.17798934    -0.73700
C68         C  0.23577041  0.24024326  0.20752127     0.78100
C69         C  0.07340533  0.26579653  0.14145583     0.78500
C70         C  0.20804446  0.19089595  0.06869921     0.77500
C71         C  0.06507049  0.12341720  0.11005429     0.77900
C72         C  0.08173341  0.18318796  0.24700612     0.79000
C73         C  0.20149624  0.10581130  0.19736562     0.78100
C74         C  0.26937198  0.02254095  0.22428522     0.04100
C75         C  0.25345123  0.05282503  0.20383038    -0.12100
C76         C  0.22146052  0.07605048  0.21951142     0.01600
C77         C  0.20636024  0.07013096  0.25651744    -0.10600
C78         C  0.22224490  0.04074473  0.27835152     0.04000
C79         C  0.25335114  0.01635097  0.26175194    -0.10000
H80         H  0.26481067  0.05780191  0.17518196     0.09600
H81         H  0.18173541  0.08874969  0.26844123     0.07200
H82         H  0.26579817  0.49341867  0.27816603     0.07000
C83         C  0.05614424  0.14524210  0.34230092     0.04100
C84         C  0.01748149  0.16549787  0.35281606    -0.12100
C85         C  0.00157042  0.19312502  0.32806428     0.01600
C86         C  0.02445134  0.20017672  0.29411642    -0.10600
C87         C  0.06104378  0.17925138  0.28377362     0.04000
C88         C  0.07682478  0.15215459  0.30763077    -0.10000
H89         H  0.00030711  0.15983241  0.37916167     0.09600
H90         H  0.01255567  0.22111867  0.27476331     0.07200
H91         H  0.10553554  0.13596014  0.29880070     0.07000
Zn92       Zn  0.89623957  0.25172418  0.28061379     1.49700
Zn93       Zn  0.82008420  0.30109547  0.31811176     1.49400
Zn94       Zn  0.91330857  0.28239772  0.36249883     1.49100
Zn95       Zn  0.91564932  0.33659025  0.29342005     1.49500
O96         O  0.88539809  0.29308571  0.31413993    -1.83200
O97         O  0.84064611  0.22827664  0.26158986    -0.73800
O98         O  0.80223477  0.29764749  0.37453013    -0.73700
O99         O  0.95695466  0.23884665  0.35886768    -0.73200
O100        O  0.78613568  0.26115392  0.28795061    -0.73900
O101        O  0.93372845  0.21387858  0.30494389    -0.73500
O102        O  0.86446740  0.27669813  0.40237582    -0.74000
O103        O  0.95713045  0.36380807  0.32855120    -0.73400
O104        O  0.80346530  0.35135823  0.29378098    -0.74200
O105        O  0.95087665  0.32674731  0.37803748    -0.73600
O106        O  0.87044673  0.37146445  0.27464942    -0.74000
O107        O  0.94947437  0.32482090  0.24780887    -0.73900
O108        O  0.93093740  0.26683104  0.23486944    -0.73700
C109        C  0.79939859  0.23489256  0.26668466     0.78100
C110        C  0.82331968  0.28643030  0.40381809     0.78500
C111        C  0.96034470  0.21469426  0.33286771     0.77500
C112        C  0.96590634  0.35617541  0.36263890     0.77900
C113        C  0.82813172  0.37461994  0.27604196     0.79000
C114        C  0.95047473  0.29686000  0.22650796     0.78100
C115        C  0.76592213  0.46167673  0.24894162     0.04100
C116        C  0.78014114  0.43110798  0.27005074    -0.12100
C117        C  0.80862902  0.40499156  0.25390190     0.01600
C118        C  0.82243943  0.40926281  0.21625275    -0.10600
C119        C  0.80853305  0.43926065  0.19416982     0.04000
C120        C  0.78014257  0.46578986  0.21088061    -0.10000
H121        H  0.76937990  0.42788920  0.29911743     0.09600
H122        H  0.84498659  0.38906104  0.20417682     0.07200
H123        H  0.76855690  0.48895192  0.19437227     0.07000
C124        C  0.98871759  0.38371562  0.38672976     0.04100
C125        C  0.97033703  0.38826253  0.42272379    -0.12100
C126        C  0.98473581  0.41642977  0.44627250     0.01600
C127        C  0.01984174  0.43920906  0.43526800    -0.10600
C128        C  0.03889941  0.43601506  0.39913218     0.04000
C129        C  0.02297502  0.40829982  0.37423999    -0.10000
H130        H  0.94235220  0.37114602  0.43180266     0.09600
H131        H  0.03021477  0.46135769  0.45398186     0.07200
H132        H  0.03589389  0.40657221  0.34571093     0.07000
Zn133      Zn  0.17001976  0.08474182  0.38383272     1.49700
Zn134      Zn  0.16368489  0.04418084  0.46189583     1.49400
Zn135      Zn  0.07915870  0.04681239  0.40856452     1.49100
Zn136      Zn  0.16662625  0.49670266  0.38689644     1.49500
O137        O  0.14488628  0.04263569  0.40959214    -1.83200
O138        O  0.20885039  0.11682568  0.41719206    -0.73800
O139        O  0.11312517  0.04686234  0.99734483    -0.73700
O140        O  0.05516973  0.08957572  0.37820475    -0.73200
O141        O  0.19425950  0.09035981  0.47221868    -0.73900
O142        O  0.12023577  0.11756208  0.36726986    -0.73500
O143        O  0.05411322  0.05562859  0.46038807    -0.74000
O144        O  0.11223049  0.46055766  0.38588860    -0.73400
O145        O  0.20601537  0.00487704  0.47716254    -0.74200
O146        O  0.05374510  0.49854302  0.39226186    -0.73600
O147        O  0.21405980  0.47464881  0.42305754    -0.74000
O148        O  0.19449250  0.00730906  0.33330860    -0.73900
O149        O  0.20058304  0.06851647  0.33588951    -0.73700
C150        C  0.21070899  0.11652500  0.45308570     0.78100
C151        C  0.07202729  0.05427404  0.99278691     0.78500
C152        C  0.07762475  0.11654711  0.36514212     0.77500
C153        C  0.06997794  0.46625937  0.38905781     0.77900
C154        C  0.22457265  0.47981188  0.45780661     0.79000
C155        C  0.20591264  0.03815488  0.31825338     0.78100
C156        C  0.27555804  0.20291837  0.47693279     0.04100
C157        C  0.25984975  0.20954203  0.01429451    -0.12100
C158        C  0.22856919  0.18531899  0.03104598     0.01600
C159        C  0.21405867  0.15460934  0.01075015    -0.10600
C160        C  0.22934708  0.14787262  0.47394466     0.04000
C161        C  0.25972657  0.17209042  0.45712139    -0.10000
H162        H  0.27121856  0.23347706  0.02994091     0.09600
H163        H  0.18950757  0.13628099  0.02356544     0.07200
H164        H  0.27107217  0.16675822  0.42853260     0.07000
C165        C  0.47840656  0.33548634  0.09281248     0.04100
C166        C  0.45952918  0.33061455  0.05719157    -0.12100
C167        C  0.47867478  0.30730571  0.03090430     0.01600
C168        C  0.51752591  0.28865538  0.03943178    -0.10600
C169        C  0.53701595  0.29171512  0.07537496     0.04000
C170        C  0.51752986  0.31549988  0.10261087    -0.10000
H171        H  0.42947539  0.34554442  0.04939060     0.09600
H172        H  0.53102682  0.26979128  0.01855222     0.07200
H173        H  0.53208021  0.31817060  0.13044912     0.07000
Zn174      Zn  0.63430634  0.22338209  0.02960295     1.49700
Zn175      Zn  0.71008338  0.18007413  0.07167950     1.49400
Zn176      Zn  0.61423362  0.19674688  0.11397955     1.49100
Zn177      Zn  0.61694688  0.14021279  0.04748593     1.49500
O178        O  0.64463006  0.18521564  0.06658284    -1.83200
O179        O  0.69031701  0.24356189  0.00578548    -0.73800
O180        O  0.72582050  0.18222727  0.12842815    -0.73700
O181        O  0.57490005  0.24301928  0.10792713    -0.73200
O182        O  0.74363461  0.22148979  0.04300843    -0.73900
O183        O  0.60270273  0.26490361  0.05389296    -0.73500
O184        O  0.66156164  0.20050523  0.15533886    -0.74000
O185        O  0.57880995  0.11196353  0.08354852    -0.73400
O186        O  0.72934204  0.13167381  0.04554538    -0.74200
O187        O  0.57352049  0.15333226  0.12943514    -0.73600
O188        O  0.66364844  0.10864839  0.02675750    -0.74000
O189        O  0.57893067  0.14835711  0.50408417    -0.73900
O190        O  0.59390028  0.20603187  0.48761004    -0.73700
C191        C  0.73105071  0.24229513  0.01597670     0.78100
C192        C  0.70298517  0.19170801  0.15754253     0.78500
C193        C  0.57521460  0.26679479  0.08133366     0.77500
C194        C  0.56377776  0.12178454  0.11543360     0.77900
C195        C  0.70610599  0.10796041  0.02718652     0.79000
C196        C  0.57456252  0.17523767  0.48188476     0.78100
C197        C  0.77704471  0.02701121  0.49711956     0.04100
C198        C  0.76066280  0.02130087  0.45981785    -0.12100
C199        C  0.72704934  0.04438548  0.44495699     0.01600
C200        C  0.71046613  0.07292039  0.46750357    -0.10600
C201        C  0.72744455  0.07955938  0.50380494     0.04000
C202        C  0.76090604  0.05699090  0.01825791    -0.10000
H203        H  0.77283645  0.49851152  0.44297806     0.09600
H204        H  0.68398481  0.09028317  0.45661252     0.07200
H205        H  0.77273044  0.06186196  0.04672569     0.07000
C206        C  0.54132677  0.09396002  0.13935445     0.04100
C207        C  0.56035352  0.08915055  0.17490650    -0.12100
C208        C  0.55089175  0.05794835  0.19617083     0.01600
C209        C  0.51922614  0.03266712  0.18371779    -0.10600
C210        C  0.49661773  0.03789373  0.14937186     0.04000
C211        C  0.50861828  0.06828498  0.12626681    -0.10000
H212        H  0.58615515  0.10808998  0.18467967     0.09600
H213        H  0.51174611  0.00891247  0.20128287     0.07200
H214        H  0.49401321  0.07127861  0.09850965     0.07000
Zn215      Zn  0.36073320  0.43216448  0.21162782     1.49700
Zn216      Zn  0.36509987  0.48144166  0.13756260     1.49400
Zn217      Zn  0.44961597  0.42990640  0.16319266     1.49100
Zn218      Zn  0.36045369  0.39255846  0.13408681     1.49500
O219        O  0.38394755  0.43467121  0.16073151    -1.83200
O220        O  0.31573984  0.46987221  0.22428436    -0.73800
O221        O  0.42165142  0.01602594  0.13607711    -0.73700
O222        O  0.47062759  0.42620520  0.21654289    -0.73200
O223        O  0.31848812  0.00537529  0.17331192    -0.73900
O224        O  0.40810275  0.43590422  0.24916010    -0.73500
O225        O  0.47748256  0.47598496  0.14442393    -0.74000
O226        O  0.41207152  0.36280288  0.11496895    -0.73400
O227        O  0.33535939  0.47102902  0.08462737    -0.74200
O228        O  0.47616945  0.38608437  0.13591929    -0.73600
O229        O  0.32655104  0.41002253  0.08846019    -0.74000
O230        O  0.32567307  0.35644960  0.16683242    -0.73900
O231        O  0.33518889  0.38351753  0.22222679    -0.73700
C232        C  0.30285816  0.99798057  0.20625501     0.78100
C233        C  0.46346820  0.00876093  0.14006257     0.78500
C234        C  0.44987916  0.43021072  0.24757119     0.77500
C235        C  0.45472724  0.36205364  0.11713159     0.77900
C236        C  0.32153017  0.44033956  0.07064404     0.79000
C237        C  0.32293052  0.35606843  0.20268696     0.78100
C238        C  0.26960392  0.26391487  0.22545200     0.04100
C239        C  0.28283689  0.29538647  0.20543238    -0.12100
C240        C  0.30822917  0.32273827  0.22299463     0.01600
C241        C  0.32143109  0.31798754  0.26058326    -0.10600
C242        C  0.30979167  0.28637236  0.28121591     0.04000
C243        C  0.28339141  0.25899805  0.26342609    -0.10000
H244        H  0.27172276  0.29923374  0.17660967     0.09600
H245        H  0.34223336  0.33891913  0.27377733     0.07200
H246        H  0.27244642  0.23498220  0.27913381     0.07000
C247        C  0.54177542  0.13347694  0.38974052     0.04100
C248        C  0.50988938  0.15930079  0.37622560    -0.12100
C249        C  0.49755949  0.18943195  0.39942636     0.01600
C250        C  0.51876293  0.19429634  0.43437830    -0.10600
C251        C  0.54954824  0.16889084  0.44732719     0.04000
C252        C  0.55944944  0.13788061  0.42589741    -0.10000
H253        H  0.49620034  0.15665160  0.34808229     0.09600
H254        H  0.51105163  0.21800178  0.45190379     0.07200
H255        H  0.58481070  0.11896439  0.43600908     0.07000
Zn256      Zn  0.36120610  0.33368272  0.38504605     1.49700
Zn257      Zn  0.45239215  0.29775471  0.41171797     1.49400
Zn258      Zn  0.36480618  0.29475832  0.46222027     1.49100
Zn259      Zn  0.36768975  0.24531380  0.38867502     1.49500
O260        O  0.38666093  0.29236709  0.41113607    -1.83200
O261        O  0.41138890  0.36600149  0.36743496    -0.73800
O262        O  0.47520416  0.30335870  0.46447553    -0.73700
O263        O  0.33566781  0.34159832  0.47273275    -0.73200
O264        O  0.47681521  0.34196557  0.38349706    -0.73900
O265        O  0.32277925  0.36740379  0.41735058    -0.73500
O266        O  0.41324708  0.29480736  0.99833448    -0.74000
O267        O  0.32155999  0.22125062  0.42445823    -0.73400
O268        O  0.47989811  0.25140168  0.39302374    -0.74200
O269        O  0.32273472  0.25531932  0.47649702    -0.73600
O270        O  0.42326109  0.21120763  0.38706421    -0.74000
O271        O  0.33928923  0.25430516  0.33575470    -0.73900
O272        O  0.33021176  0.31523777  0.33839443    -0.73700
C273        C  0.45410706  0.36695715  0.36753784     0.78100
C274        C  0.45492795  0.30086682  0.99590517     0.78500
C275        C  0.32044614  0.36784017  0.45321793     0.77500
C276        C  0.30823400  0.22779022  0.45822839     0.77900
C277        C  0.46520416  0.21853553  0.38976791     0.79000
C278        C  0.32613287  0.28458139  0.32093890     0.78100
C279        C  0.25825206  0.45576554  0.47636744     0.04100
C280        C  0.27376455  0.42482067  0.45653498    -0.12100
C281        C  0.30278528  0.39999485  0.47361086     0.01600
C282        C  0.31715688  0.40633530  0.01064721    -0.10600
C283        C  0.30366399  0.43730835  0.03125259     0.04000
C284        C  0.27401155  0.46240324  0.01385742    -0.10000
H285        H  0.26256847  0.41949721  0.42798446     0.09600
H286        H  0.34053826  0.38726553  0.02339027     0.07200
H287        H  0.26258337  0.48620554  0.02954278     0.07000
C288        C  0.47599563  0.39508934  0.34380638     0.04100
C289        C  0.45494854  0.40145593  0.30932462    -0.12100
C290        C  0.47332528  0.42523756  0.28299260     0.01600
C291        C  0.51291461  0.44363204  0.29079643    -0.10600
C292        C  0.53430978  0.43930305  0.32584169     0.04000
C293        C  0.51603335  0.41451344  0.35277100    -0.10000
H294        H  0.42444984  0.38659115  0.30205901     0.09600
H295        H  0.52607401  0.46269124  0.26987423     0.07200
H296        H  0.53237635  0.41044914  0.37967874     0.07000
Zn297      Zn  0.71140155  0.05065518  0.32070332     1.49700
Zn298      Zn  0.61675260  0.03215271  0.36433369     1.49400
Zn299      Zn  0.61635963  0.08770733  0.29718071     1.49100
Zn300      Zn  0.63572771  0.00500483  0.27912191     1.49500
O301        O  0.64590332  0.04362145  0.31620705    -1.83200
O302        O  0.72848049  0.04885765  0.37737606    -0.73800
O303        O  0.57602536  0.07505589  0.38012159    -0.73700
O304        O  0.66195334  0.12077652  0.27676845    -0.73200
O305        O  0.66510014  0.02977889  0.40546376    -0.73900
O306        O  0.72868230  0.10000553  0.29504956    -0.73500
O307        O  0.57793341  0.11544269  0.33328333    -0.74000
O308        O  0.59749617  0.02220449  0.23567336    -0.73400
O309        O  0.57648131  0.48588113  0.35864007    -0.74200
O310        O  0.57826375  0.07840998  0.25380871    -0.73600
O311        O  0.59995721  0.46530328  0.30264198    -0.74000
O312        O  0.69207872  0.48315211  0.25756351    -0.73900
O313        O  0.74560223  0.01012685  0.29147793    -0.73700
C314        C  0.70649206  0.03939434  0.40701618     0.78100
C315        C  0.56463602  0.10596435  0.36581750     0.78500
C316        C  0.70432637  0.12313036  0.27724686     0.77500
C317        C  0.57610660  0.05200692  0.23068963     0.77900
C318        C  0.57400055  0.46315176  0.33110705     0.79000
C319        C  0.73310710  0.48691236  0.26640048     0.78100
C320        C  0.76696769  0.20951445  0.24937528     0.04100
C321        C  0.75344973  0.17858826  0.27027536    -0.12100
C322        C  0.72407544  0.15286286  0.25453797     0.01600
C323        C  0.70853947  0.15785908  0.21753890    -0.10600
C324        C  0.72262730  0.18791672  0.19570929     0.04000
C325        C  0.75230055  0.21392258  0.21169264    -0.10000
H326        H  0.76487200  0.17509613  0.29907373     0.09600
H327        H  0.68483422  0.13825408  0.20570110     0.07200
H328        H  0.76336626  0.23749655  0.19529085     0.07000
C329        C  0.04233067  0.09572241  0.58592187     0.04100
C330        C  0.06037543  0.09121152  0.54973512    -0.12100
C331        C  0.04579792  0.06294255  0.52625537     0.01600
C332        C  0.01114534  0.03994792  0.53762716    -0.10600
C333        C  0.99262653  0.04295041  0.57393741     0.04000
C334        C  0.00845569  0.07086365  0.59866164    -0.10000
H335        H  0.08823027  0.10837747  0.54048868     0.09600
H336        H  0.00077004  0.01771501  0.51900850     0.07200
H337        H  0.99579149  0.07252168  0.62726285     0.07000
Zn338      Zn  0.86151861  0.39334512  0.58932332     1.49700
Zn339      Zn  0.95216931  0.43212825  0.56381408     1.49400
Zn340      Zn  0.86565370  0.43331633  0.51090210     1.49100
Zn341      Zn  0.86561393  0.48199888  0.58589862     1.49500
O342        O  0.88609045  0.43558937  0.56290300    -1.83200
O343        O  0.91237085  0.36212929  0.60689276    -0.76200
O344        O  0.97690819  0.42428985  0.51199394    -0.73700
O345        O  0.83389053  0.38635298  0.50116243    -0.73200
O346        O  0.97721509  0.38957483  0.59390914    -0.73900
O347        O  0.82415422  0.35880831  0.55636766    -0.73500
O348        O  0.91675700  0.43012549  0.97561911    -0.74000
O349        O  0.82025991  0.00592617  0.54982003    -0.73400
O350        O  0.97789036  0.48029161  0.58011408    -0.74200
O351        O  0.82548982  0.47498174  0.99584616    -0.73600
O352        O  0.91970643  0.01812613  0.58782600    -0.74000
O353        O  0.83690168  0.47161479  0.63895352    -0.73900
O354        O  0.83024970  0.41036976  0.63698322    -0.73700
C355        C  0.95504556  0.36309430  0.60826332     0.78100
C356        C  0.95841091  0.42455182  0.97982324     0.78500
C357        C  0.82010628  0.35917695  0.52057483     0.77500
C358        C  0.80937856  0.00134354  0.51513526     0.77900
C359        C  0.96183063  0.01252622  0.58408070     0.79000
C360        C  0.82506245  0.44100527  0.65425509     0.78100
C361        C  0.76303051  0.26783074  0.99760946     0.04100
C362        C  0.77725017  0.29910784  0.51782492    -0.12100
C363        C  0.80273019  0.32663660  0.00000626     0.01600
C364        C  0.81517666  0.32197574  0.96206499    -0.10600
C365        C  0.80287231  0.29056007  0.94171669     0.04000
C366        C  0.77583719  0.26354550  0.95930685    -0.10000
H367        H  0.76734510  0.30246168  0.54709016     0.09600
H368        H  0.83644336  0.34233907  0.94840928     0.07200
H369        H  0.76545260  0.23930844  0.94368299     0.07000
C370        C  0.97703940  0.33489781  0.63148921     0.04100
C371        C  0.95610263  0.32786573  0.66600672    -0.12100
C372        C  0.97200101  0.30104324  0.69010190     0.01600
C373        C  0.00932629  0.28068700  0.68032184    -0.10600
C374        C  0.03244761  0.28778566  0.64648276     0.04000
C375        C  0.01618719  0.31502844  0.62139686    -0.10000
H376        H  0.92691770  0.34367530  0.67449834     0.09600
H377        H  0.02130020  0.25992733  0.69985175     0.07200
H378        H  0.03336201  0.32057928  0.59501162     0.07000
Zn379      Zn  0.21099414  0.17738319  0.65415880     1.49700
Zn380      Zn  0.13757624  0.22738917  0.69310672     1.49400
Zn381      Zn  0.11824803  0.19719102  0.61042878     1.49100
Zn382      Zn  0.11453367  0.14367093  0.67967738     1.49500
O383        O  0.14607023  0.18642051  0.65875342    -1.83200
O384        O  0.24755515  0.21472519  0.68487039    -0.73800
O385        O  0.10024689  0.26607734  0.66933394    -0.73700
O386        O  0.16710372  0.20130940  0.57002485    -0.73200
O387        O  0.19484896  0.24819445  0.71284836    -0.73900
O388        O  0.22898447  0.18011284  0.59815681    -0.73500
O389        O  0.07617479  0.24183565  0.61513628    -0.74000
O390        O  0.07412418  0.11572740  0.64409541    -0.73400
O391        O  0.10333649  0.21234879  0.73906225    -0.74200
O392        O  0.07965319  0.15309163  0.59480627    -0.73600
O393        O  0.08001630  0.15580088  0.72494728    -0.74000
O394        O  0.15934284  0.10955025  0.69969814    -0.73900
O395        O  0.22605706  0.12770642  0.67798938    -0.73700
C396        C  0.23577041  0.24024326  0.70752134     0.78100
C397        C  0.07340538  0.26579661  0.64145576     0.78500
C398        C  0.20804448  0.19089603  0.56869926     0.77500
C399        C  0.06507049  0.12341720  0.61005430     0.77900
C400        C  0.08173347  0.18318805  0.74700613     0.79000
C401        C  0.20149624  0.10581128  0.69736562     0.78100
C402        C  0.26937195  0.02254091  0.72428517     0.04100
C403        C  0.25345125  0.05282501  0.70383013    -0.12100
C404        C  0.22146050  0.07605044  0.71951138     0.01600
C405        C  0.20636027  0.07013089  0.75651730    -0.10600
C406        C  0.22224492  0.04074477  0.77835146     0.04000
C407        C  0.25335117  0.01635111  0.76175183    -0.10000
H408        H  0.26481032  0.05780174  0.67518254     0.09600
H409        H  0.18173511  0.08874985  0.76844123     0.07200
H410        H  0.26579822  0.49341872  0.77816597     0.07000
C411        C  0.05614426  0.14524211  0.84230091     0.04100
C412        C  0.01748156  0.16549788  0.85281584    -0.12100
C413        C  0.00157038  0.19312495  0.82806416     0.01600
C414        C  0.02445130  0.20017674  0.79411623    -0.10600
C415        C  0.06104382  0.17925139  0.78377359     0.04000
C416        C  0.07682480  0.15215455  0.80763069    -0.10000
H417        H  0.00030666  0.15983226  0.87916213     0.09600
H418        H  0.01255588  0.22111827  0.77476350     0.07200
H419        H  0.10553541  0.13596010  0.79880064     0.07000
Zn420      Zn  0.89623956  0.25172430  0.78061381     1.49700
Zn421      Zn  0.82008423  0.30109541  0.81811180     1.49400
Zn422      Zn  0.91330860  0.28239767  0.86249889     1.49100
Zn423      Zn  0.91564934  0.33659019  0.79342007     1.49500
O424        O  0.88539810  0.29308571  0.81414003    -1.83200
O425        O  0.84064612  0.22827662  0.76158989    -0.73800
O426        O  0.80223480  0.29764741  0.87453010    -0.73700
O427        O  0.95695469  0.23884659  0.85886754    -0.73200
O428        O  0.78613571  0.26115389  0.78795063    -0.73900
O429        O  0.93372845  0.21387856  0.80494374    -0.73500
O430        O  0.86446741  0.27669808  0.90237586    -0.74000
O431        O  0.95713049  0.36380804  0.82855113    -0.73400
O432        O  0.80346531  0.35135818  0.79378103    -0.74200
O433        O  0.95087667  0.32674735  0.87803748    -0.73600
O434        O  0.87044673  0.37146439  0.77464948    -0.74000
O435        O  0.94947437  0.32482081  0.74780881    -0.73900
O436        O  0.93093717  0.26683104  0.73486930    -0.73700
C437        C  0.79939860  0.23489258  0.76668461     0.78100
C438        C  0.82331971  0.28643028  0.90381809     0.78500
C439        C  0.96034469  0.21469420  0.83286756     0.77500
C440        C  0.96590632  0.35617544  0.86263886     0.77900
C441        C  0.82813172  0.37461989  0.77604199     0.79000
C442        C  0.95047470  0.29685993  0.72650789     0.78100
C443        C  0.76592207  0.46167670  0.74894160     0.04100
C444        C  0.78014111  0.43110794  0.77005072    -0.12100
C445        C  0.80862902  0.40499150  0.75390188     0.01600
C446        C  0.82243944  0.40926278  0.71625276    -0.10600
C447        C  0.80853308  0.43926062  0.69416983     0.04000
C448        C  0.78014257  0.46578984  0.71088061    -0.10000
H449        H  0.76937989  0.42788914  0.79911738     0.09600
H450        H  0.84498672  0.38906092  0.70417675     0.07200
H451        H  0.76855692  0.48895193  0.69437223     0.07000
C452        C  0.98871751  0.38371569  0.88672969     0.04100
C453        C  0.97033696  0.38826248  0.92272378    -0.12100
C454        C  0.98473576  0.41642978  0.94627248     0.01600
C455        C  0.01984165  0.43920896  0.93526792    -0.10600
C456        C  0.03889944  0.43601501  0.89913220     0.04000
C457        C  0.02297502  0.40829981  0.87423997    -0.10000
H458        H  0.94235240  0.37114608  0.93180261     0.09600
H459        H  0.03021488  0.46135800  0.95398216     0.07200
H460        H  0.03589397  0.40657220  0.84571088     0.07000
Zn461      Zn  0.17001978  0.08474196  0.88383259     1.49700
Zn462      Zn  0.16368492  0.04418098  0.96189588     1.49400
Zn463      Zn  0.07915871  0.04681236  0.90856458     1.49100
Zn464      Zn  0.16662626  0.49670263  0.88689630     1.49500
O465        O  0.14488634  0.04263570  0.90959212    -1.83200
O466        O  0.20885033  0.11682584  0.91719205    -0.73800
O467        O  0.11312510  0.04686237  0.49734478    -0.73700
O468        O  0.05516975  0.08957574  0.87820481    -0.73200
O469        O  0.19425956  0.09035989  0.97221867    -0.73900
O470        O  0.12023578  0.11756204  0.86726969    -0.73500
O471        O  0.05411325  0.05562854  0.96038815    -0.74000
O472        O  0.11223051  0.46055761  0.88588863    -0.73400
O473        O  0.20601537  0.00487707  0.97716259    -0.74200
O474        O  0.05374507  0.49854295  0.89226192    -0.73600
O475        O  0.21405980  0.47464883  0.92305756    -0.74000
O476        O  0.19449247  0.00730917  0.83330848    -0.73900
O477        O  0.20058312  0.06851659  0.83588944    -0.73700
C478        C  0.21070903  0.11652511  0.95308564     0.78100
C479        C  0.07202724  0.05427411  0.49278684     0.78500
C480        C  0.07762478  0.11654711  0.86514208     0.77500
C481        C  0.06997797  0.46625931  0.88905787     0.77900
C482        C  0.22457265  0.47981189  0.95780663     0.79000
C483        C  0.20591268  0.03815498  0.81825330     0.78100
C484        C  0.27555807  0.20291841  0.97693280     0.04100
C485        C  0.25984975  0.20954198  0.51429455    -0.12100
C486        C  0.22856920  0.18531900  0.53104602     0.01600
C487        C  0.21405841  0.15460927  0.51075025    -0.10600
C488        C  0.22934715  0.14787265  0.97394464     0.04000
C489        C  0.25972658  0.17209054  0.95712129    -0.10000
H490        H  0.27121862  0.23347700  0.52994091     0.09600
H491        H  0.18950796  0.13628150  0.52356516     0.07200
H492        H  0.27107202  0.16675841  0.92853260     0.07000
C493        C  0.47840656  0.33548642  0.59281242     0.04100
C494        C  0.45952921  0.33061470  0.55719146    -0.12100
C495        C  0.47867476  0.30730571  0.53090427     0.01600
C496        C  0.51752588  0.28865531  0.53943169    -0.10600
C497        C  0.53701591  0.29171511  0.57537490     0.04000
C498        C  0.51752983  0.31549985  0.60261087    -0.10000
H499        H  0.42947579  0.34554451  0.54939050     0.09600
H500        H  0.53102656  0.26979148  0.51855242     0.07200
H501        H  0.53208005  0.31817048  0.63044890     0.07000
Zn502      Zn  0.63430632  0.22338204  0.52960301     1.49700
Zn503      Zn  0.71008340  0.18007407  0.57167957     1.49400
Zn504      Zn  0.61423363  0.19674685  0.61397957     1.49100
Zn505      Zn  0.61694688  0.14021292  0.54748597     1.49500
O506        O  0.64463009  0.18521563  0.56658292    -1.83200
O507        O  0.69031694  0.24356185  0.50578557    -0.73800
O508        O  0.72582052  0.18222718  0.62842819    -0.73700
O509        O  0.57490006  0.24301922  0.60792697    -0.73200
O510        O  0.74363455  0.22148972  0.54300848    -0.73900
O511        O  0.60270257  0.26490353  0.55389274    -0.73500
O512        O  0.66156168  0.20050540  0.65533876    -0.74000
O513        O  0.57880998  0.11196357  0.58354856    -0.73400
O514        O  0.72934206  0.13167379  0.54554544    -0.74200
O515        O  0.57352051  0.15333225  0.62943521    -0.73600
O516        O  0.66364844  0.10864842  0.52675756    -0.74000
O517        O  0.57893060  0.14835705  0.00408422    -0.73900
O518        O  0.59390033  0.20603179  0.98760998    -0.73700
C519        C  0.73105065  0.24229507  0.51597677     0.78100
C520        C  0.70298515  0.19170806  0.65754249     0.78500
C521        C  0.57521455  0.26679473  0.58133351     0.77500
C522        C  0.56377778  0.12178456  0.61543365     0.77900
C523        C  0.70610600  0.10796043  0.52718655     0.79000
C524        C  0.57456250  0.17523760  0.98188477     0.78100
C525        C  0.77704466  0.02701114  0.99711960     0.04100
C526        C  0.76066277  0.02130090  0.95981793    -0.12100
C527        C  0.72704931  0.04438540  0.94495704     0.01600
C528        C  0.71046593  0.07292036  0.96750360    -0.10600
C529        C  0.72744453  0.07955932  0.00380496     0.04000
C530        C  0.76090608  0.05699096  0.51825773    -0.10000
H531        H  0.77283664  0.49851122  0.94297795     0.09600
H532        H  0.68398516  0.09028267  0.95661282     0.07200
H533        H  0.77273079  0.06186218  0.54672619     0.07000
C534        C  0.54132675  0.09396003  0.63935446     0.04100
C535        C  0.56035360  0.08915069  0.67490658    -0.12100
C536        C  0.55089175  0.05794835  0.69617081     0.01600
C537        C  0.51922614  0.03266713  0.68371776    -0.10600
C538        C  0.49661776  0.03789373  0.64937182     0.04000
C539        C  0.50861830  0.06828498  0.62626663    -0.10000
H540        H  0.58615437  0.10808952  0.68467948     0.09600
H541        H  0.51174616  0.00891262  0.70128274     0.07200
H542        H  0.49401368  0.07127853  0.59851017     0.07000
Zn543      Zn  0.36073320  0.43216445  0.71162784     1.49700
Zn544      Zn  0.36509986  0.48144180  0.63756266     1.49400
Zn545      Zn  0.44961597  0.42990639  0.66319273     1.49100
Zn546      Zn  0.36045368  0.39255844  0.63408687     1.49500
O547        O  0.38394755  0.43467132  0.66073157    -1.83200
O548        O  0.31573986  0.46987222  0.72428432    -0.73800
O549        O  0.42165143  0.01602588  0.63607716    -0.73700
O550        O  0.47062768  0.42620534  0.71654290    -0.73200
O551        O  0.31848819  0.00537535  0.67331193    -0.73900
O552        O  0.40810274  0.43590413  0.74916004    -0.73500
O553        O  0.47748250  0.47598492  0.64442398    -0.74000
O554        O  0.41207147  0.36280286  0.61496901    -0.73400
O555        O  0.33535939  0.47102905  0.58462740    -0.74200
O556        O  0.47616937  0.38608446  0.63591926    -0.73600
O557        O  0.32655111  0.41002254  0.58846017    -0.74000
O558        O  0.32567307  0.35644950  0.66683240    -0.73900
O559        O  0.33518891  0.38351749  0.72222672    -0.73700
C560        C  0.30285817  0.99798059  0.70625495     0.78100
C561        C  0.46346821  0.00876090  0.64006258     0.78500
C562        C  0.44987917  0.43021072  0.74757117     0.77500
C563        C  0.45472721  0.36205370  0.61713158     0.77900
C564        C  0.32153020  0.44033956  0.57064404     0.79000
C565        C  0.32293054  0.35606838  0.70268695     0.78100
C566        C  0.26960396  0.26391482  0.72545205     0.04100
C567        C  0.28283693  0.29538643  0.70543243    -0.12100
C568        C  0.30822915  0.32273824  0.72299463     0.01600
C569        C  0.32143116  0.31798768  0.76058332    -0.10600
C570        C  0.30979169  0.28637238  0.78121589     0.04000
C571        C  0.28339148  0.25899804  0.76342614    -0.10000
H572        H  0.27172277  0.29923367  0.67660970     0.09600
H573        H  0.34223278  0.33891873  0.77377700     0.07200
H574        H  0.27244648  0.23498222  0.77913388     0.07000
C575        C  0.54177547  0.13347700  0.88974043     0.04100
C576        C  0.50988939  0.15930079  0.87622558    -0.12100
C577        C  0.49755950  0.18943194  0.89942630     0.01600
C578        C  0.51876291  0.19429630  0.93437827    -0.10600
C579        C  0.54954822  0.16889080  0.94732718     0.04000
C580        C  0.55944948  0.13788064  0.92589733    -0.10000
H581        H  0.49620018  0.15665153  0.84808206     0.09600
H582        H  0.51105152  0.21800180  0.95190384     0.07200
H583        H  0.58481075  0.11896438  0.93600902     0.07000
Zn584      Zn  0.36120609  0.33368274  0.88504587     1.49700
Zn585      Zn  0.45239214  0.29775483  0.91171800     1.49400
Zn586      Zn  0.36480619  0.29475832  0.96222029     1.49100
Zn587      Zn  0.36768975  0.24531378  0.88867490     1.49500
O588        O  0.38666093  0.29236716  0.91113594    -1.83200
O589        O  0.41138892  0.36600144  0.86743483    -0.73800
O590        O  0.47520404  0.30335866  0.96447556    -0.73700
O591        O  0.33566778  0.34159837  0.97273270    -0.73200
O592        O  0.47681523  0.34196564  0.88349713    -0.73900
O593        O  0.32277935  0.36740390  0.91735052    -0.73500
O594        O  0.41324716  0.29480722  0.49833437    -0.74000
O595        O  0.32156008  0.22125062  0.92445829    -0.73400
O596        O  0.47989809  0.25140167  0.89302377    -0.74200
O597        O  0.32273469  0.25531939  0.97649704    -0.73600
O598        O  0.42326111  0.21120758  0.88706417    -0.74000
O599        O  0.33928899  0.25430530  0.83575474    -0.73900
O600        O  0.33021179  0.31523796  0.83839426    -0.73700
C601        C  0.45410708  0.36695717  0.86753782     0.78100
C602        C  0.45492801  0.30086680  0.49590511     0.78500
C603        C  0.32044619  0.36784026  0.95321786     0.77500
C604        C  0.30823405  0.22779025  0.95822842     0.77900
C605        C  0.46520418  0.21853551  0.88976785     0.79000
C606        C  0.32613281  0.28458154  0.82093885     0.78100
C607        C  0.25825208  0.45576555  0.97636744     0.04100
C608        C  0.27376449  0.42482069  0.95653477    -0.12100
C609        C  0.30278535  0.39999492  0.97361084     0.01600
C610        C  0.31715687  0.40633524  0.51064725    -0.10600
C611        C  0.30366399  0.43730835  0.53125260     0.04000
C612        C  0.27401160  0.46240313  0.51385739    -0.10000
H613        H  0.26256888  0.41949742  0.92798531     0.09600
H614        H  0.34053824  0.38726548  0.52339030     0.07200
H615        H  0.26258315  0.48620599  0.52954311     0.07000
C616        C  0.47599563  0.39508935  0.84380639     0.04100
C617        C  0.45494859  0.40145606  0.80932468    -0.12100
C618        C  0.47332523  0.42523756  0.78299259     0.01600
C619        C  0.51291458  0.44363196  0.79079640    -0.10600
C620        C  0.53430976  0.43930304  0.82584165     0.04000
C621        C  0.51603331  0.41451343  0.85277081    -0.10000
H622        H  0.42444910  0.38659096  0.80205895     0.09600
H623        H  0.52607416  0.46269134  0.76987392     0.07200
H624        H  0.53237688  0.41044895  0.87967933     0.07000
Zn625      Zn  0.71140153  0.05065516  0.82070336     1.49700
Zn626      Zn  0.61675262  0.03215268  0.86433370     1.49400
Zn627      Zn  0.61635966  0.08770730  0.79718072     1.49100
Zn628      Zn  0.63572772  0.00500480  0.77912176     1.49500
O629        O  0.64590333  0.04362137  0.81620695    -1.83200
O630        O  0.72848035  0.04885762  0.87737611    -0.73800
O631        O  0.57602538  0.07505593  0.88012155    -0.73700
O632        O  0.66195334  0.12077663  0.77676838    -0.73200
O633        O  0.66510008  0.02977879  0.90546385    -0.73900
O634        O  0.72868224  0.10000556  0.79504961    -0.73500
O635        O  0.57793344  0.11544270  0.83328327    -0.74000
O636        O  0.59749617  0.02220444  0.73567331    -0.73400
O637        O  0.57648133  0.48588108  0.85863994    -0.74200
O638        O  0.57826377  0.07840992  0.75380874    -0.73600
O639        O  0.59995714  0.46530318  0.80264184    -0.74000
O640        O  0.69207861  0.48315210  0.75756356    -0.73900
O641        O  0.74560231  0.01012696  0.79147795    -0.73700
C642        C  0.70649197  0.03939427  0.90701625     0.78100
C643        C  0.56463604  0.10596438  0.86581745     0.78500
C644        C  0.70432635  0.12313043  0.77724684     0.77500
C645        C  0.57610663  0.05200689  0.73068962     0.77900
C646        C  0.57400053  0.46315170  0.83110695     0.79000
C647        C  0.73310703  0.48691237  0.76640051     0.78100
C648        C  0.76696766  0.20951451  0.74937524     0.04100
C649        C  0.75344974  0.17858831  0.77027507    -0.12100
C650        C  0.72407555  0.15286287  0.75453793     0.01600
C651        C  0.70853943  0.15785906  0.71753878    -0.10600
C652        C  0.72262720  0.18791681  0.69570928     0.04000
C653        C  0.75230041  0.21392285  0.71169251    -0.10000
H654        H  0.76487248  0.17509603  0.79907444     0.09600
H655        H  0.68483465  0.13825442  0.70570124     0.07200
H656        H  0.76336574  0.23749612  0.69529124     0.07000
C657        C  0.04233070  0.59572239  0.08592188     0.04100
C658        C  0.06037536  0.59121142  0.04973519    -0.12100
C659        C  0.04579797  0.56294255  0.02625541     0.01600
C660        C  0.01114529  0.53994794  0.03762715    -0.10600
C661        C  0.99262655  0.54295043  0.07393741     0.04000
C662        C  0.00845576  0.57086356  0.09866171    -0.10000
H663        H  0.08823087  0.60837777  0.04048854     0.09600
H664        H  0.00077001  0.51771520  0.01900857     0.07200
H665        H  0.99579166  0.57252153  0.12726283     0.07000
Zn666      Zn  0.86151862  0.89334519  0.08932328     1.49700
Zn667      Zn  0.95216937  0.93212815  0.06381422     1.49400
Zn668      Zn  0.86565374  0.93331638  0.01090206     1.49100
Zn669      Zn  0.86561396  0.98199891  0.08589857     1.49500
O670        O  0.88609050  0.93558933  0.06290296    -1.83200
O671        O  0.91237079  0.86212936  0.10689279    -0.76200
O672        O  0.97690826  0.92428991  0.01199396    -0.73700
O673        O  0.83389060  0.88635293  0.00116253    -0.73200
O674        O  0.97721512  0.88957473  0.09390909    -0.73900
O675        O  0.82415420  0.85880833  0.05636778    -0.73500
O676        O  0.91675697  0.93012539  0.47561904    -0.74000
O677        O  0.82025995  0.50592621  0.04982003    -0.73400
O678        O  0.97789036  0.98029163  0.08011427    -0.74200
O679        O  0.82548983  0.97498171  0.49584616    -0.73600
O680        O  0.91970641  0.51812621  0.08782590    -0.74000
O681        O  0.83690148  0.97161486  0.13895347    -0.73900
O682        O  0.83024978  0.91036981  0.13698321    -0.73700
C683        C  0.95504553  0.86309430  0.10826333     0.78100
C684        C  0.95841090  0.92455179  0.47982321     0.78500
C685        C  0.82010633  0.85917694  0.02057491     0.77500
C686        C  0.80937858  0.50134356  0.01513527     0.77900
C687        C  0.96183061  0.51252627  0.08408071     0.79000
C688        C  0.82506244  0.94100528  0.15425507     0.78100
C689        C  0.76303057  0.76783070  0.49760948     0.04100
C690        C  0.77725030  0.79910776  0.01782478    -0.12100
C691        C  0.80273020  0.82663661  0.50000619     0.01600
C692        C  0.81517661  0.82197562  0.46206505    -0.10600
C693        C  0.80287236  0.79056009  0.44171670     0.04000
C694        C  0.77583716  0.76354544  0.45930683    -0.10000
H695        H  0.76734487  0.80246164  0.04709092     0.09600
H696        H  0.83644388  0.84233947  0.44840898     0.07200
H697        H  0.76545270  0.73930878  0.44368314     0.07000
C698        C  0.97703937  0.83489782  0.13148924     0.04100
C699        C  0.95610263  0.82786581  0.16600672    -0.12100
C700        C  0.97200096  0.80104333  0.19010195     0.01600
C701        C  0.00932629  0.78068712  0.18032194    -0.10600
C702        C  0.03244762  0.78778572  0.14648287     0.04000
C703        C  0.01618731  0.81502850  0.12139677    -0.10000
H704        H  0.92691773  0.84367537  0.17449830     0.09600
H705        H  0.02130010  0.75992747  0.19985188     0.07200
H706        H  0.03336156  0.82057912  0.09501233     0.07000
Zn707      Zn  0.21099413  0.67738324  0.15415874     1.49700
Zn708      Zn  0.13757626  0.72738919  0.19310685     1.49400
Zn709      Zn  0.11824804  0.69719107  0.11042888     1.49100
Zn710      Zn  0.11453370  0.64367081  0.17967749     1.49500
O711        O  0.14607013  0.68642054  0.15875351    -1.83200
O712        O  0.24755525  0.71472514  0.18487035    -0.73800
O713        O  0.10024674  0.76607717  0.16933406    -0.73700
O714        O  0.16710379  0.70130946  0.07002487    -0.73200
O715        O  0.19484903  0.74819437  0.21284833    -0.73900
O716        O  0.22898448  0.68011268  0.09815673    -0.73500
O717        O  0.07617478  0.74183571  0.11513624    -0.74000
O718        O  0.07412415  0.61572740  0.14409540    -0.73400
O719        O  0.10333652  0.71234871  0.23906226    -0.74200
O720        O  0.07965324  0.65309159  0.09480622    -0.73600
O721        O  0.08001621  0.65580082  0.22494728    -0.74000
O722        O  0.15934287  0.60955015  0.19969808    -0.73900
O723        O  0.22605707  0.62770648  0.17798937    -0.73700
C724        C  0.23577048  0.74024324  0.20752126     0.78100
C725        C  0.07340532  0.76579656  0.14145583     0.78500
C726        C  0.20804451  0.69089598  0.06869922     0.77500
C727        C  0.06507047  0.62341717  0.11005430     0.77900
C728        C  0.08173338  0.68318800  0.24700611     0.79000
C729        C  0.20149625  0.60581129  0.19736562     0.78100
C730        C  0.26937195  0.52254096  0.22428521     0.04100
C731        C  0.25345112  0.55282500  0.20383039    -0.12100
C732        C  0.22146057  0.57605051  0.21951144     0.01600
C733        C  0.20636030  0.57013100  0.25651747    -0.10600
C734        C  0.22224494  0.54074476  0.27835154     0.04000
C735        C  0.25335117  0.51635101  0.26175196    -0.10000
H736        H  0.26481052  0.55780187  0.17518173     0.09600
H737        H  0.18173550  0.58874973  0.26844124     0.07200
H738        H  0.26579811  0.99341869  0.27816599     0.07000
C739        C  0.05614422  0.64524214  0.34230092     0.04100
C740        C  0.01748154  0.66549792  0.35281606    -0.12100
C741        C  0.00157047  0.69312507  0.32806430     0.01600
C742        C  0.02445139  0.70017676  0.29411643    -0.10600
C743        C  0.06104378  0.67925143  0.28377362     0.04000
C744        C  0.07682492  0.65215456  0.30763073    -0.10000
H745        H  0.00030714  0.65983244  0.37916168     0.09600
H746        H  0.01255570  0.72111870  0.27476334     0.07200
H747        H  0.10553499  0.63596045  0.29880085     0.07000
Zn748      Zn  0.89623954  0.75172419  0.28061379     1.49700
Zn749      Zn  0.82008401  0.80109550  0.31811176     1.49400
Zn750      Zn  0.91330840  0.78239775  0.36249882     1.49100
Zn751      Zn  0.91564935  0.83659027  0.29342006     1.49500
O752        O  0.88539789  0.79308575  0.31413992    -1.83200
O753        O  0.84064601  0.72827651  0.26158991    -0.73800
O754        O  0.80223479  0.79764752  0.37453014    -0.73700
O755        O  0.95695466  0.73884670  0.35886768    -0.73200
O756        O  0.78613562  0.76115394  0.28795057    -0.73900
O757        O  0.93372852  0.71387861  0.30494388    -0.73500
O758        O  0.86446742  0.77669816  0.40237584    -0.74000
O759        O  0.95713051  0.86380810  0.32855120    -0.73400
O760        O  0.80346532  0.85135827  0.29378098    -0.74200
O761        O  0.95087665  0.82674733  0.37803747    -0.73600
O762        O  0.87044679  0.87146447  0.27464943    -0.74000
O763        O  0.94947439  0.82482090  0.24780889    -0.73900
O764        O  0.93093718  0.76683111  0.23486939    -0.73700
C765        C  0.79939850  0.73489254  0.26668465     0.78100
C766        C  0.82331972  0.78643034  0.40381810     0.78500
C767        C  0.96034475  0.71469430  0.33286771     0.77500
C768        C  0.96590639  0.85617542  0.36263889     0.77900
C769        C  0.82813179  0.87461997  0.27604196     0.79000
C770        C  0.95047463  0.79686003  0.22650794     0.78100
C771        C  0.76592216  0.96167674  0.24894163     0.04100
C772        C  0.78014121  0.93110800  0.27005070    -0.12100
C773        C  0.80862906  0.90499158  0.25390191     0.01600
C774        C  0.82243952  0.90926268  0.21625269    -0.10600
C775        C  0.80853309  0.93926064  0.19416985     0.04000
C776        C  0.78014260  0.96578989  0.21088058    -0.10000
H777        H  0.76937987  0.92788917  0.29911759     0.09600
H778        H  0.84498609  0.88906135  0.20417705     0.07200
H779        H  0.76855701  0.98895164  0.19437240     0.07000
C780        C  0.98871761  0.88371560  0.38672975     0.04100
C781        C  0.97033707  0.88826252  0.42272377    -0.12100
C782        C  0.98473579  0.91642972  0.44627249     0.01600
C783        C  0.01984177  0.93920904  0.43526802    -0.10600
C784        C  0.03889951  0.93601496  0.39913220     0.04000
C785        C  0.02297507  0.90829979  0.37423999    -0.10000
H786        H  0.94235200  0.87114587  0.43180268     0.09600
H787        H  0.03021466  0.96135746  0.45398170     0.07200
H788        H  0.03589393  0.90657221  0.34571090     0.07000
Zn789      Zn  0.17001980  0.58474185  0.38383272     1.49700
Zn790      Zn  0.16368494  0.54418086  0.46189583     1.49400
Zn791      Zn  0.07915874  0.54681245  0.40856451     1.49100
Zn792      Zn  0.16662631  0.99670268  0.38689644     1.49500
O793        O  0.14488634  0.54263571  0.40959214    -1.83200
O794        O  0.20885044  0.61682571  0.41719206    -0.73800
O795        O  0.11312513  0.54686235  0.99734484    -0.73700
O796        O  0.05516957  0.58957575  0.37820475    -0.73200
O797        O  0.19425955  0.59035985  0.47221868    -0.73900
O798        O  0.12023565  0.61756206  0.36726989    -0.73500
O799        O  0.05411326  0.55562865  0.46038806    -0.74000
O800        O  0.11223058  0.96055764  0.38588860    -0.73400
O801        O  0.20601542  0.50487706  0.47716253    -0.74200
O802        O  0.05374510  0.99854292  0.39226187    -0.73600
O803        O  0.21405986  0.97464885  0.42305753    -0.74000
O804        O  0.19449231  0.50730910  0.33330856    -0.73900
O805        O  0.20058313  0.56851650  0.33588952    -0.73700
C806        C  0.21070905  0.61652503  0.45308570     0.78100
C807        C  0.07202724  0.55427408  0.99278689     0.78500
C808        C  0.07762466  0.61654712  0.36514212     0.77500
C809        C  0.06997801  0.96625930  0.38905783     0.77900
C810        C  0.22457267  0.97981191  0.45780662     0.79000
C811        C  0.20591262  0.53815491  0.31825338     0.78100
C812        C  0.27555809  0.70291840  0.47693280     0.04100
C813        C  0.25984978  0.70954201  0.01429449    -0.12100
C814        C  0.22856921  0.68531903  0.03104597     0.01600
C815        C  0.21405847  0.65460933  0.01075016    -0.10600
C816        C  0.22934714  0.64787265  0.47394464     0.04000
C817        C  0.25972664  0.67209046  0.45712138    -0.10000
H818        H  0.27121862  0.73347706  0.02994087     0.09600
H819        H  0.18950790  0.63628150  0.02356512     0.07200
H820        H  0.27107223  0.66675825  0.42853260     0.07000
C821        C  0.47840656  0.83548637  0.09281249     0.04100
C822        C  0.45952923  0.83061458  0.05719157    -0.12100
C823        C  0.47867483  0.80730575  0.03090430     0.01600
C824        C  0.51752595  0.78865542  0.03943179    -0.10600
C825        C  0.53701597  0.79171517  0.07537498     0.04000
C826        C  0.51752989  0.81549993  0.10261089    -0.10000
H827        H  0.42947542  0.84554446  0.04939059     0.09600
H828        H  0.53102685  0.76979132  0.01855223     0.07200
H829        H  0.53208025  0.81817065  0.13044912     0.07000
Zn830      Zn  0.63430635  0.72338212  0.02960295     1.49700
Zn831      Zn  0.71008341  0.68007416  0.07167949     1.49400
Zn832      Zn  0.61423347  0.69674691  0.11397955     1.49100
Zn833      Zn  0.61694694  0.64021280  0.04748594     1.49500
O834        O  0.64463007  0.68521567  0.06658285    -1.83200
O835        O  0.69031698  0.74356193  0.00578551    -0.73800
O836        O  0.72582041  0.68222728  0.12842813    -0.73700
O837        O  0.57490004  0.74301933  0.10792716    -0.73200
O838        O  0.74363458  0.72148979  0.04300843    -0.73900
O839        O  0.60270262  0.76490359  0.05389290    -0.73500
O840        O  0.66156158  0.70050529  0.15533888    -0.74000
O841        O  0.57881004  0.61196343  0.08354854    -0.73400
O842        O  0.72934210  0.63167384  0.04554539    -0.74200
O843        O  0.57352049  0.65333224  0.12943509    -0.73600
O844        O  0.66364851  0.60864843  0.02675750    -0.74000
O845        O  0.57893073  0.64835712  0.50408417    -0.73900
O846        O  0.59390031  0.70603190  0.48761002    -0.73700
C847        C  0.73105069  0.74229511  0.01597669     0.78100
C848        C  0.70298511  0.69170804  0.15754252     0.78500
C849        C  0.57521459  0.76679483  0.08133367     0.77500
C850        C  0.56377782  0.62178450  0.11543360     0.77900
C851        C  0.70610606  0.60796045  0.02718652     0.79000
C852        C  0.57456253  0.67523769  0.48188478     0.78100
C853        C  0.77704474  0.52701121  0.49711954     0.04100
C854        C  0.76066283  0.52130091  0.45981781    -0.12100
C855        C  0.72704936  0.54438551  0.44495699     0.01600
C856        C  0.71046597  0.57292043  0.46750355    -0.10600
C857        C  0.72744454  0.57955933  0.50380497     0.04000
C858        C  0.76090609  0.55699094  0.01825790    -0.10000
H859        H  0.77283641  0.99851147  0.44297809     0.09600
H860        H  0.68398524  0.59028276  0.45661281     0.07200
H861        H  0.77273049  0.56186200  0.04672568     0.07000
C862        C  0.54132681  0.59396004  0.13935447     0.04100
C863        C  0.56035358  0.58915058  0.17490650    -0.12100
C864        C  0.55089180  0.55794835  0.19617082     0.01600
C865        C  0.51922622  0.53266725  0.18371770    -0.10600
C866        C  0.49661779  0.53789372  0.14937187     0.04000
C867        C  0.50861834  0.56828500  0.12626682    -0.10000
H868        H  0.58615520  0.60809000  0.18467968     0.09600
H869        H  0.51174598  0.50891194  0.20128331     0.07200
H870        H  0.49401327  0.57127864  0.09850964     0.07000
Zn871      Zn  0.36073324  0.93216451  0.21162783     1.49700
Zn872      Zn  0.36509971  0.98144167  0.13756259     1.49400
Zn873      Zn  0.44961596  0.92990642  0.16319265     1.49100
Zn874      Zn  0.36045350  0.89255848  0.13408681     1.49500
O875        O  0.38394741  0.93467123  0.16073149    -1.83200
O876        O  0.31573989  0.96987221  0.22428438    -0.73800
O877        O  0.42165148  0.51602599  0.13607710    -0.73700
O878        O  0.47062749  0.92620521  0.21654288    -0.73200
O879        O  0.31848801  0.50537526  0.17331188    -0.73900
O880        O  0.40810270  0.93590427  0.24916012    -0.73500
O881        O  0.47748257  0.97598496  0.14442392    -0.74000
O882        O  0.41207145  0.86280292  0.11496896    -0.73400
O883        O  0.33535932  0.97102900  0.08462736    -0.74200
O884        O  0.47616942  0.88608439  0.13591928    -0.73600
O885        O  0.32655098  0.91002251  0.08846019    -0.74000
O886        O  0.32567308  0.85644961  0.16683243    -0.73900
O887        O  0.33518894  0.88351756  0.22222679    -0.73700
C888        C  0.30285808  0.49798056  0.20625498     0.78100
C889        C  0.46346824  0.50876095  0.14006257     0.78500
C890        C  0.44987911  0.93021075  0.24757119     0.77500
C891        C  0.45472721  0.86205367  0.11713160     0.77900
C892        C  0.32153008  0.94033952  0.07064404     0.79000
C893        C  0.32293058  0.85606846  0.20268698     0.78100
C894        C  0.26960399  0.76391485  0.22545198     0.04100
C895        C  0.28283695  0.79538650  0.20543237    -0.12100
C896        C  0.30822922  0.82273828  0.22299463     0.01600
C897        C  0.32143118  0.81798764  0.26058330    -0.10600
C898        C  0.30979169  0.78637238  0.28121591     0.04000
C899        C  0.28339153  0.75899816  0.26342602    -0.10000
H900        H  0.27172281  0.79923376  0.17660966     0.09600
H901        H  0.34223307  0.83891891  0.27377718     0.07200
H902        H  0.27244632  0.73498176  0.27913410     0.07000
C903        C  0.54177548  0.63347696  0.38974050     0.04100
C904        C  0.50988944  0.65930077  0.37622566    -0.12100
C905        C  0.49755946  0.68943188  0.39942636     0.01600
C906        C  0.51876292  0.69429634  0.43437831    -0.10600
C907        C  0.54954820  0.66889083  0.44732723     0.04000
C908        C  0.55944948  0.63788063  0.42589743    -0.10000
H909        H  0.49620025  0.65665151  0.34808198     0.09600
H910        H  0.51105168  0.71800177  0.45190370     0.07200
H911        H  0.58481071  0.61896449  0.43600906     0.07000
Zn912      Zn  0.36120614  0.83368274  0.38504605     1.49700
Zn913      Zn  0.45239218  0.79775468  0.41171795     1.49400
Zn914      Zn  0.36480624  0.79475835  0.46222027     1.49100
Zn915      Zn  0.36768979  0.74531383  0.38867501     1.49500
O916        O  0.38666099  0.79236711  0.41113607    -1.83200
O917        O  0.41138889  0.86600140  0.36743490    -0.73800
O918        O  0.47520409  0.80335854  0.46447551    -0.73700
O919        O  0.33566786  0.84159836  0.47273275    -0.73200
O920        O  0.47681519  0.84196558  0.38349711    -0.73900
O921        O  0.32277931  0.86740383  0.41735058    -0.73500
O922        O  0.41324714  0.79480740  0.99833448    -0.74000
O923        O  0.32156005  0.72125065  0.42445824    -0.73400
O924        O  0.47989819  0.75140160  0.39302375    -0.74200
O925        O  0.32273478  0.75531935  0.47649702    -0.73600
O926        O  0.42326111  0.71120761  0.38706419    -0.74000
O927        O  0.33928906  0.75430516  0.33575474    -0.73900
O928        O  0.33021185  0.81523780  0.33839441    -0.73700
C929        C  0.45410706  0.86695712  0.36753784     0.78100
C930        C  0.45492801  0.80086686  0.99590517     0.78500
C931        C  0.32044616  0.86784019  0.45321794     0.77500
C932        C  0.30823406  0.72779025  0.45822839     0.77900
C933        C  0.46520420  0.71853548  0.38976790     0.79000
C934        C  0.32613286  0.78458143  0.32093890     0.78100
C935        C  0.25825210  0.95576558  0.47636741     0.04100
C936        C  0.27376455  0.92482071  0.45653498    -0.12100
C937        C  0.30278521  0.89999484  0.47361086     0.01600
C938        C  0.31715677  0.90633533  0.01064718    -0.10600
C939        C  0.30366388  0.93730833  0.03125261     0.04000
C940        C  0.27401155  0.96240326  0.01385740    -0.10000
H941        H  0.26256850  0.91949726  0.42798438     0.09600
H942        H  0.34053841  0.88726539  0.02339035     0.07200
H943        H  0.26258336  0.98620567  0.02954281     0.07000
C944        C  0.47599559  0.89508933  0.34380638     0.04100
C945        C  0.45494864  0.90145597  0.30932464    -0.12100
C946        C  0.47332521  0.92523759  0.28299261     0.01600
C947        C  0.51291459  0.94363209  0.29079642    -0.10600
C948        C  0.53430975  0.93930307  0.32584170     0.04000
C949        C  0.51603335  0.91451346  0.35277101    -0.10000
H950        H  0.42444936  0.88659086  0.30205885     0.09600
H951        H  0.52607395  0.96269116  0.26987427     0.07200
H952        H  0.53237635  0.91044914  0.37967866     0.07000
Zn953      Zn  0.71140159  0.55065504  0.32070331     1.49700
Zn954      Zn  0.61675264  0.53215273  0.36433369     1.49400
Zn955      Zn  0.61635966  0.58770735  0.29718070     1.49100
Zn956      Zn  0.63572776  0.50500487  0.27912191     1.49500
O957        O  0.64590336  0.54362145  0.31620704    -1.83200
O958        O  0.72848041  0.54885768  0.37737604    -0.73800
O959        O  0.57602542  0.57505592  0.38012159    -0.73700
O960        O  0.66195335  0.62077653  0.27676846    -0.73200
O961        O  0.66510013  0.52977888  0.40546379    -0.73900
O962        O  0.72868233  0.60000552  0.29504956    -0.73500
O963        O  0.57793349  0.61544272  0.33328333    -0.74000
O964        O  0.59749625  0.52220456  0.23567336    -0.73400
O965        O  0.57648134  0.98588109  0.35864007    -0.74200
O966        O  0.57826359  0.57840999  0.25380875    -0.73600
O967        O  0.59995722  0.96530323  0.30264198    -0.74000
O968        O  0.69207864  0.98315195  0.25756354    -0.73900
O969        O  0.74560236  0.51012683  0.29147797    -0.73700
C970        C  0.70649202  0.53939437  0.40701618     0.78100
C971        C  0.56463609  0.60596438  0.36581751     0.78500
C972        C  0.70432639  0.62313038  0.27724688     0.77500
C973        C  0.57610659  0.55200696  0.23068964     0.77900
C974        C  0.57400057  0.96315173  0.33110706     0.79000
C975        C  0.73310703  0.98691232  0.26640048     0.78100
C976        C  0.76696758  0.70951449  0.24937528     0.04100
C977        C  0.75344972  0.67858827  0.27027535    -0.12100
C978        C  0.72407537  0.65286289  0.25453798     0.01600
C979        C  0.70853953  0.65785917  0.21753894    -0.10600
C980        C  0.72262727  0.68791672  0.19570926     0.04000
C981        C  0.75230040  0.71392260  0.21169268    -0.10000
H982        H  0.76487204  0.67509611  0.29907366     0.09600
H983        H  0.68483379  0.63825374  0.20570088     0.07200
H984        H  0.76336616  0.73749685  0.19529074     0.07000
C985        C  0.04233067  0.59572239  0.58592189     0.04100
C986        C  0.06037546  0.59121153  0.54973513    -0.12100
C987        C  0.04579796  0.56294257  0.52625537     0.01600
C988        C  0.01114538  0.53994793  0.53762717    -0.10600
C989        C  0.99262658  0.54295042  0.57393741     0.04000
C990        C  0.00845571  0.57086364  0.59866165    -0.10000
H991        H  0.08823035  0.60837751  0.54048869     0.09600
H992        H  0.00077009  0.51771505  0.51900853     0.07200
H993        H  0.99579149  0.57252169  0.62726285     0.07000
Zn994      Zn  0.86151864  0.89334513  0.58932332     1.49700
Zn995      Zn  0.95216937  0.93212810  0.56381408     1.49400
Zn996      Zn  0.86565375  0.93331635  0.51090210     1.49100
Zn997      Zn  0.86561394  0.98199886  0.58589862     1.49500
O998        O  0.88609051  0.93558927  0.56290300    -1.83200
O999        O  0.91237083  0.86212931  0.60689277    -0.76200
O1000       O  0.97690824  0.92428983  0.51199393    -0.73700
O1001       O  0.83389059  0.88635301  0.50116242    -0.73200
O1002       O  0.97721510  0.88957480  0.59390914    -0.73900
O1003       O  0.82415428  0.85880834  0.55636766    -0.73500
O1004       O  0.91675696  0.93012533  0.97561907    -0.74000
O1005       O  0.82025996  0.50592619  0.54982002    -0.73400
O1006       O  0.97789035  0.98029157  0.58011408    -0.74200
O1007       O  0.82548986  0.97498174  0.99584613    -0.73600
O1008       O  0.91970646  0.51812616  0.58782600    -0.74000
O1009       O  0.83690150  0.97161480  0.63895348    -0.73900
O1010       O  0.83024978  0.91036975  0.63698324    -0.73700
C1011       C  0.95504556  0.86309431  0.60826333     0.78100
C1012       C  0.95841089  0.92455179  0.97982323     0.78500
C1013       C  0.82010634  0.85917698  0.52057483     0.77500
C1014       C  0.80937860  0.50134354  0.51513524     0.77900
C1015       C  0.96183066  0.51252625  0.58408071     0.79000
C1016       C  0.82506243  0.94100524  0.65425508     0.78100
C1017       C  0.76303055  0.76783065  0.99760944     0.04100
C1018       C  0.77725023  0.79910788  0.51782492    -0.12100
C1019       C  0.80273021  0.82663652  0.00000628     0.01600
C1020       C  0.81517664  0.82197556  0.96206509    -0.10600
C1021       C  0.80287231  0.79056004  0.94171669     0.04000
C1022       C  0.77583719  0.76354544  0.95930683    -0.10000
H1023       H  0.76734516  0.80246171  0.54709016     0.09600
H1024       H  0.83644390  0.84233942  0.94840905     0.07200
H1025       H  0.76545254  0.73930839  0.94368289     0.07000
C1026       C  0.97703940  0.83489784  0.63148922     0.04100
C1027       C  0.95610277  0.82786571  0.66600668    -0.12100
C1028       C  0.97200101  0.80104329  0.69010190     0.01600
C1029       C  0.00932632  0.78068704  0.68032185    -0.10600
C1030       C  0.03244762  0.78778566  0.64648276     0.04000
C1031       C  0.01618725  0.81502845  0.62139683    -0.10000
H1032       H  0.92691714  0.84367562  0.67449847     0.09600
H1033       H  0.02130017  0.75992737  0.69985178     0.07200
H1034       H  0.03336193  0.82057924  0.59501170     0.07000
Zn1035     Zn  0.21099415  0.67738320  0.65415881     1.49700
Zn1036     Zn  0.13757628  0.72738916  0.69310673     1.49400
Zn1037     Zn  0.11824804  0.69719102  0.61042876     1.49100
Zn1038     Zn  0.11453370  0.64367094  0.67967738     1.49500
O1039       O  0.14607016  0.68642054  0.65875342    -1.83200
O1040       O  0.24755521  0.71472522  0.68487039    -0.73800
O1041       O  0.10024672  0.76607712  0.66933403    -0.73700
O1042       O  0.16710382  0.70130939  0.57002488    -0.73200
O1043       O  0.19484902  0.74819448  0.71284835    -0.73900
O1044       O  0.22898449  0.68011262  0.59815680    -0.73500
O1045       O  0.07617482  0.74183564  0.61513621    -0.74000
O1046       O  0.07412418  0.61572738  0.64409542    -0.73400
O1047       O  0.10333656  0.71234866  0.73906225    -0.74200
O1048       O  0.07965304  0.65309162  0.59480626    -0.73600
O1049       O  0.08001625  0.65580079  0.72494727    -0.74000
O1050       O  0.15934289  0.60955030  0.69969813    -0.73900
O1051       O  0.22605713  0.62770644  0.67798940    -0.73700
C1052       C  0.23577047  0.74024329  0.70752133     0.78100
C1053       C  0.07340534  0.76579651  0.64145577     0.78500
C1054       C  0.20804454  0.69089592  0.56869927     0.77500
C1055       C  0.06507039  0.62341720  0.61005432     0.77900
C1056       C  0.08173344  0.68318795  0.74700611     0.79000
C1057       C  0.20149627  0.60581132  0.69736566     0.78100
C1058       C  0.26937193  0.52254094  0.72428518     0.04100
C1059       C  0.25345112  0.55282498  0.70383039    -0.12100
C1060       C  0.22146053  0.57605048  0.71951141     0.01600
C1061       C  0.20636031  0.57013090  0.75651738    -0.10600
C1062       C  0.22224494  0.54074477  0.77835149     0.04000
C1063       C  0.25335118  0.51635097  0.76175193    -0.10000
H1064       H  0.26481066  0.55780193  0.67518157     0.09600
H1065       H  0.18173519  0.58874987  0.76844130     0.07200
H1066       H  0.26579853  0.99341837  0.77816632     0.07000
C1067       C  0.05614420  0.64524209  0.84230088     0.04100
C1068       C  0.01748159  0.66549789  0.85281583    -0.12100
C1069       C  0.00157040  0.69312497  0.82806418     0.01600
C1070       C  0.02445134  0.70017676  0.79411625    -0.10600
C1071       C  0.06104381  0.67925137  0.78377359     0.04000
C1072       C  0.07682492  0.65215448  0.80763065    -0.10000
H1073       H  0.00030671  0.65983227  0.87916217     0.09600
H1074       H  0.01255591  0.72111828  0.77476353     0.07200
H1075       H  0.10553491  0.63596036  0.79880081     0.07000
Zn1076     Zn  0.89623956  0.75172432  0.78061380     1.49700
Zn1077     Zn  0.82008401  0.80109545  0.81811181     1.49400
Zn1078     Zn  0.91330841  0.78239770  0.86249887     1.49100
Zn1079     Zn  0.91564937  0.83659021  0.79342008     1.49500
O1080       O  0.88539791  0.79308575  0.81414002    -1.83200
O1081       O  0.84064603  0.72827665  0.76158989    -0.73800
O1082       O  0.80223461  0.79764741  0.87453013    -0.73700
O1083       O  0.95695463  0.73884662  0.85886754    -0.73200
O1084       O  0.78613559  0.76115392  0.78795063    -0.73900
O1085       O  0.93372847  0.71387858  0.80494374    -0.73500
O1086       O  0.86446731  0.77669814  0.90237583    -0.74000
O1087       O  0.95713055  0.86380806  0.82855114    -0.73400
O1088       O  0.80346533  0.85135822  0.79378102    -0.74200
O1089       O  0.95087665  0.82674735  0.87803746    -0.73600
O1090       O  0.87044680  0.87146443  0.77464948    -0.74000
O1091       O  0.94947437  0.82482084  0.74780881    -0.73900
O1092       O  0.93093717  0.76683107  0.73486930    -0.73700
C1093       C  0.79939850  0.73489260  0.76668462     0.78100
C1094       C  0.82331959  0.78643030  0.90381809     0.78500
C1095       C  0.96034468  0.71469422  0.83286757     0.77500
C1096       C  0.96590638  0.85617543  0.86263886     0.77900
C1097       C  0.82813178  0.87461992  0.77604199     0.79000
C1098       C  0.95047467  0.79685996  0.72650787     0.78100
C1099       C  0.76592215  0.96167677  0.74894162     0.04100
C1100       C  0.78014117  0.93110798  0.77005073    -0.12100
C1101       C  0.80862908  0.90499153  0.75390189     0.01600
C1102       C  0.82243951  0.90926279  0.71625277    -0.10600
C1103       C  0.80853310  0.93926063  0.69416984     0.04000
C1104       C  0.78014264  0.96578980  0.71088064    -0.10000
H1105       H  0.76937995  0.92788918  0.79911739     0.09600
H1106       H  0.84498675  0.88906097  0.70417679     0.07200
H1107       H  0.76855683  0.98895212  0.69437204     0.07000
C1108       C  0.98871763  0.88371564  0.88672972     0.04100
C1109       C  0.97033705  0.88826249  0.92272378    -0.12100
C1110       C  0.98473581  0.91642978  0.94627249     0.01600
C1111       C  0.01984170  0.93920897  0.93526793    -0.10600
C1112       C  0.03889948  0.93601501  0.89913221     0.04000
C1113       C  0.02297509  0.90829980  0.87423998    -0.10000
H1114       H  0.94235237  0.87114604  0.93180262     0.09600
H1115       H  0.03021491  0.96135801  0.95398215     0.07200
H1116       H  0.03589398  0.90657222  0.84571088     0.07000
Zn1117     Zn  0.17001981  0.58474197  0.88383259     1.49700
Zn1118     Zn  0.16368495  0.54418083  0.96189589     1.49400
Zn1119     Zn  0.07915856  0.54681239  0.90856458     1.49100
Zn1120     Zn  0.16662633  0.99670265  0.88689630     1.49500
O1121       O  0.14488630  0.54263571  0.90959211    -1.83200
O1122       O  0.20885044  0.61682572  0.91719205    -0.73800
O1123       O  0.11312508  0.54686219  0.49734478    -0.73700
O1124       O  0.05516956  0.58957575  0.87820481    -0.73200
O1125       O  0.19425957  0.59035983  0.97221870    -0.73900
O1126       O  0.12023565  0.61756201  0.86726973    -0.73500
O1127       O  0.05411321  0.55562856  0.96038815    -0.74000
O1128       O  0.11223050  0.96055768  0.88588864    -0.73400
O1129       O  0.20601543  0.50487704  0.97716259    -0.74200
O1130       O  0.05374501  0.99854296  0.89226190    -0.73600
O1131       O  0.21405986  0.97464887  0.92305755    -0.74000
O1132       O  0.19449228  0.50730921  0.83330846    -0.73900
O1133       O  0.20058321  0.56851662  0.83588945    -0.73700
C1134       C  0.21070905  0.61652504  0.95308566     0.78100
C1135       C  0.07202725  0.55427407  0.49278684     0.78500
C1136       C  0.07762467  0.61654709  0.86514207     0.77500
C1137       C  0.06997795  0.96625934  0.88905787     0.77900
C1138       C  0.22457267  0.97981193  0.95780662     0.79000
C1139       C  0.20591266  0.53815499  0.81825332     0.78100
C1140       C  0.27555812  0.70291837  0.97693278     0.04100
C1141       C  0.25984980  0.70954199  0.51429456    -0.12100
C1142       C  0.22856926  0.68531898  0.53104602     0.01600
C1143       C  0.21405847  0.65460928  0.51075023    -0.10600
C1144       C  0.22934714  0.64787264  0.97394463     0.04000
C1145       C  0.25972667  0.67209043  0.95712129    -0.10000
H1146       H  0.27121866  0.73347702  0.52994094     0.09600
H1147       H  0.18950804  0.63628151  0.52356512     0.07200
H1148       H  0.27107212  0.66675829  0.92853279     0.07000
C1149       C  0.47840660  0.83548642  0.59281243     0.04100
C1150       C  0.45952924  0.83061476  0.55719146    -0.12100
C1151       C  0.47867478  0.80730573  0.53090424     0.01600
C1152       C  0.51752575  0.78865536  0.53943181    -0.10600
C1153       C  0.53701594  0.79171512  0.57537486     0.04000
C1154       C  0.51752988  0.81549988  0.60261086    -0.10000
H1155       H  0.42947586  0.84554457  0.54939052     0.09600
H1156       H  0.53102679  0.76979089  0.51855193     0.07200
H1157       H  0.53208015  0.81817051  0.63044892     0.07000
Zn1158     Zn  0.63430636  0.72338207  0.52960301     1.49700
Zn1159     Zn  0.71008339  0.68007410  0.57167956     1.49400
Zn1160     Zn  0.61423343  0.69674686  0.61397959     1.49100
Zn1161     Zn  0.61694691  0.64021277  0.54748597     1.49500
O1162       O  0.64462996  0.68521560  0.56658292    -1.83200
O1163       O  0.69031701  0.74356187  0.50578557    -0.73800
O1164       O  0.72582043  0.68222718  0.62842817    -0.73700
O1165       O  0.57490007  0.74301927  0.60792697    -0.73200
O1166       O  0.74363461  0.72148975  0.54300849    -0.73900
O1167       O  0.60270261  0.76490356  0.55389272    -0.73500
O1168       O  0.66156162  0.70050545  0.65533878    -0.74000
O1169       O  0.57881004  0.61196351  0.58354860    -0.73400
O1170       O  0.72934203  0.63167376  0.54554544    -0.74200
O1171       O  0.57352030  0.65333226  0.62943520    -0.73600
O1172       O  0.66364843  0.60864836  0.52675757    -0.74000
O1173       O  0.57893067  0.64835706  0.00408424    -0.73900
O1174       O  0.59390035  0.70603178  0.98760994    -0.73700
C1175       C  0.73105072  0.74229510  0.51597677     0.78100
C1176       C  0.70298511  0.69170809  0.65754248     0.78500
C1177       C  0.57521458  0.76679478  0.58133350     0.77500
C1178       C  0.56377775  0.62178451  0.61543364     0.77900
C1179       C  0.70610597  0.60796038  0.52718657     0.79000
C1180       C  0.57456252  0.67523759  0.98188478     0.78100
C1181       C  0.77704470  0.52701118  0.99711958     0.04100
C1182       C  0.76066281  0.52130093  0.95981793    -0.12100
C1183       C  0.72704936  0.54438544  0.94495704     0.01600
C1184       C  0.71046599  0.57292039  0.96750360    -0.10600
C1185       C  0.72744459  0.57955936  0.00380496     0.04000
C1186       C  0.76090605  0.55699091  0.51825771    -0.10000
H1187       H  0.77283660  0.99851123  0.94297796     0.09600
H1188       H  0.68398522  0.59028271  0.95661282     0.07200
H1189       H  0.77273081  0.56186210  0.54672633     0.07000
C1190       C  0.54132682  0.59395997  0.63935446     0.04100
C1191       C  0.56035361  0.58915054  0.67490650    -0.12100
C1192       C  0.55089179  0.55794831  0.69617080     0.01600
C1193       C  0.51922616  0.53266712  0.68371774    -0.10600
C1194       C  0.49661781  0.53789367  0.64937181     0.04000
C1195       C  0.50861832  0.56828493  0.62626662    -0.10000
H1196       H  0.58615499  0.60808977  0.68467962     0.09600
H1197       H  0.51174605  0.50891246  0.70128292     0.07200
H1198       H  0.49401368  0.57127853  0.59851021     0.07000
Zn1199     Zn  0.36073324  0.93216446  0.71162785     1.49700
Zn1200     Zn  0.36509973  0.98144163  0.63756266     1.49400
Zn1201     Zn  0.44961597  0.92990640  0.66319271     1.49100
Zn1202     Zn  0.36045348  0.89255843  0.63408684     1.49500
O1203       O  0.38394742  0.93467118  0.66073156    -1.83200
O1204       O  0.31573988  0.96987219  0.72428434    -0.73800
O1205       O  0.42165143  0.51602597  0.63607717    -0.73700
O1206       O  0.47062758  0.92620535  0.71654290    -0.73200
O1207       O  0.31848808  0.50537542  0.67331191    -0.73900
O1208       O  0.40810269  0.93590418  0.74916007    -0.73500
O1209       O  0.47748259  0.97598494  0.64442398    -0.74000
O1210       O  0.41207148  0.86280286  0.61496903    -0.73400
O1211       O  0.33535935  0.97102904  0.58462738    -0.74200
O1212       O  0.47616943  0.88608445  0.63591927    -0.73600
O1213       O  0.32655081  0.91002257  0.58846020    -0.74000
O1214       O  0.32567308  0.85644951  0.66683241    -0.73900
O1215       O  0.33518897  0.88351752  0.72222672    -0.73700
C1216       C  0.30285811  0.49798061  0.70625496     0.78100
C1217       C  0.46346819  0.50876090  0.64006258     0.78500
C1218       C  0.44987913  0.93021076  0.74757118     0.77500
C1219       C  0.45472723  0.86205368  0.61713161     0.77900
C1220       C  0.32153003  0.94033958  0.57064405     0.79000
C1221       C  0.32293060  0.85606841  0.70268697     0.78100
C1222       C  0.26960402  0.76391485  0.72545204     0.04100
C1223       C  0.28283699  0.79538646  0.70543243    -0.12100
C1224       C  0.30822920  0.82273826  0.72299463     0.01600
C1225       C  0.32143125  0.81798777  0.76058337    -0.10600
C1226       C  0.30979174  0.78637238  0.78121588     0.04000
C1227       C  0.28339154  0.75899807  0.76342613    -0.10000
H1228       H  0.27172284  0.79923369  0.67660970     0.09600
H1229       H  0.34223248  0.83891849  0.77377686     0.07200
H1230       H  0.27244653  0.73498223  0.77913387     0.07000
C1231       C  0.54177551  0.63347700  0.88974042     0.04100
C1232       C  0.50988945  0.65930081  0.87622563    -0.12100
C1233       C  0.49755956  0.68943197  0.89942628     0.01600
C1234       C  0.51876293  0.69429631  0.93437829    -0.10600
C1235       C  0.54954815  0.66889074  0.94732724     0.04000
C1236       C  0.55944950  0.63788064  0.92589734    -0.10000
H1237       H  0.49620006  0.65665149  0.84808181     0.09600
H1238       H  0.51105162  0.71800177  0.95190377     0.07200
H1239       H  0.58481084  0.61896438  0.93600899     0.07000
Zn1240     Zn  0.36120615  0.83368274  0.88504588     1.49700
Zn1241     Zn  0.45239218  0.79775483  0.91171801     1.49400
Zn1242     Zn  0.36480623  0.79475832  0.96222030     1.49100
Zn1243     Zn  0.36768981  0.74531378  0.88867489     1.49500
O1244       O  0.38666099  0.79236709  0.91113595    -1.83200
O1245       O  0.41138890  0.86600146  0.86743479    -0.73800
O1246       O  0.47520410  0.80335870  0.96447556    -0.73700
O1247       O  0.33566752  0.84159830  0.97273271    -0.73200
O1248       O  0.47681515  0.84196561  0.88349713    -0.73900
O1249       O  0.32277936  0.86740391  0.91735053    -0.73500
O1250       O  0.41324712  0.79480726  0.49833442    -0.74000
O1251       O  0.32156010  0.72125062  0.92445825    -0.73400
O1252       O  0.47989816  0.75140171  0.89302377    -0.74200
O1253       O  0.32273482  0.75531928  0.97649708    -0.73600
O1254       O  0.42326118  0.71120761  0.88706417    -0.74000
O1255       O  0.33928906  0.75430525  0.83575472    -0.73900
O1256       O  0.33021185  0.81523790  0.83839428    -0.73700
C1257       C  0.45410707  0.86695715  0.86753780     0.78100
C1258       C  0.45492796  0.80086679  0.49590512     0.78500
C1259       C  0.32044600  0.86784021  0.95321787     0.77500
C1260       C  0.30823411  0.72779020  0.95822841     0.77900
C1261       C  0.46520424  0.71853555  0.88976785     0.79000
C1262       C  0.32613288  0.78458151  0.82093885     0.78100
C1263       C  0.25825211  0.95576561  0.97636743     0.04100
C1264       C  0.27376448  0.92482074  0.95653476    -0.12100
C1265       C  0.30278520  0.89999489  0.97361084     0.01600
C1266       C  0.31715684  0.90633526  0.51064727    -0.10600
C1267       C  0.30366388  0.93730836  0.53125261     0.04000
C1268       C  0.27401153  0.96240325  0.51385743    -0.10000
H1269       H  0.26256885  0.91949748  0.92798522     0.09600
H1270       H  0.34053815  0.88726566  0.52339022     0.07200
H1271       H  0.26258331  0.98620563  0.52954281     0.07000
C1272       C  0.47599566  0.89508932  0.84380638     0.04100
C1273       C  0.45494863  0.90145610  0.80932469    -0.12100
C1274       C  0.47332518  0.92523760  0.78299262     0.01600
C1275       C  0.51291465  0.94363203  0.79079632    -0.10600
C1276       C  0.53430978  0.93930305  0.82584165     0.04000
C1277       C  0.51603336  0.91451344  0.85277081    -0.10000
H1278       H  0.42444899  0.88659090  0.80205891     0.09600
H1279       H  0.52607397  0.96269096  0.76987424     0.07200
H1280       H  0.53237691  0.91044897  0.87967930     0.07000
Zn1281     Zn  0.71140160  0.55065516  0.82070336     1.49700
Zn1282     Zn  0.61675264  0.53215268  0.86433369     1.49400
Zn1283     Zn  0.61635968  0.58770730  0.79718072     1.49100
Zn1284     Zn  0.63572755  0.50500482  0.77912177     1.49500
O1285       O  0.64590335  0.54362139  0.81620695    -1.83200
O1286       O  0.72848041  0.54885765  0.87737611    -0.73800
O1287       O  0.57602517  0.57505583  0.88012151    -0.73700
O1288       O  0.66195337  0.62077648  0.77676834    -0.73200
O1289       O  0.66510013  0.52977883  0.90546386    -0.73900
O1290       O  0.72868233  0.60000560  0.79504962    -0.73500
O1291       O  0.57793357  0.61544271  0.83328332    -0.74000
O1292       O  0.59749620  0.52220450  0.73567331    -0.73400
O1293       O  0.57648136  0.98588110  0.85863994    -0.74200
O1294       O  0.57826360  0.57840992  0.75380878    -0.73600
O1295       O  0.59995722  0.96530320  0.80264184    -0.74000
O1296       O  0.69207869  0.98315210  0.75756355    -0.73900
O1297       O  0.74560231  0.51012683  0.79147799    -0.73700
C1298       C  0.70649203  0.53939431  0.90701625     0.78100
C1299       C  0.56463602  0.60596434  0.86581745     0.78500
C1300       C  0.70432638  0.62313040  0.77724684     0.77500
C1301       C  0.57610659  0.55200691  0.73068962     0.77900
C1302       C  0.57400058  0.96315173  0.83110693     0.79000
C1303       C  0.73310709  0.98691243  0.76640050     0.78100
C1304       C  0.76696761  0.70951452  0.74937523     0.04100
C1305       C  0.75344971  0.67858832  0.77027514    -0.12100
C1306       C  0.72407544  0.65286290  0.75453794     0.01600
C1307       C  0.70853950  0.65785911  0.71753882    -0.10600
C1308       C  0.72262722  0.68791678  0.69570925     0.04000
C1309       C  0.75230045  0.71392267  0.71169255    -0.10000
H1310       H  0.76487233  0.67509609  0.79907422     0.09600
H1311       H  0.68483424  0.63825403  0.70570098     0.07200
H1312       H  0.76336612  0.73749657  0.69529081     0.07000
loop_ 
_geom_bond_atom_site_label_1 
_geom_bond_atom_site_label_2 
_geom_bond_distance 
_geom_bond_site_symmetry_2 
_ccdc_geom_bond_type 
C1            C2   1.399       .  A
C1            C6   1.423       .  A
C1           C71   1.482       .  S
C2            C3   1.389       .  A
C2            H7   1.086       .  S
C3            C4   1.384       .  A
C3          C151   1.454   1_554  S
C4            C5   1.403   1_455  A
C4            H8   1.086       .  S
C5            C6   1.419   1_655  A
C5           C31   1.476       .  S
C6            H9   1.082   1_455  S
Zn10         O14   1.937       .  S
Zn10         O15   1.999       .  S
Zn10         O19   2.041       .  S
Zn10         O26   2.025       .  S
Zn11         O14   1.975       .  S
Zn11         O16   1.998       .  S
Zn11         O18   2.025       .  S
Zn11         O22   1.991       .  S
Zn12         O14   1.944       .  S
Zn12         O17   1.976       .  S
Zn12        O348   1.972   1_554  S
Zn12        O351   2.007   1_554  S
Zn13         O14   1.970       .  S
Zn13         O25   2.097       .  S
Zn13        O677   2.059       .  S
Zn13        O680   2.074       .  S
O15          C27   1.274       .  A
O16         C356   1.268   1_554  A
O17          C29   1.269       .  A
O18          C27   1.269       .  A
O19          C29   1.274       .  A
O20        Zn340   1.972       .  S
O20          C28   1.268       .  A
O21        Zn669   2.059   1_545  S
O21          C30   1.282       .  A
O22         C687   1.274       .  A
O23        Zn340   2.007       .  S
O23        C1014   1.271       .  A
O24        Zn669   2.074   1_545  S
O24          C31   1.280       .  A
O25          C32   1.284       .  A
O26          C32   1.279       .  A
C27          C42   1.472       .  S
C28         C126   1.454       .  S
C28         O344   1.268       .  A
C29         C363   1.479       .  S
C30         C525   1.490   1_554  S
C30        O1007   1.271   1_544  A
C31         O678   1.274   1_545  A
C32         C119   1.498       .  S
C33          C38   1.418       .  A
C33         C362   1.406       .  A
C33         C519   1.476       .  S
C34         C361   1.406   1_554  A
C34         C363   1.401       .  A
C34          H39   1.084       .  S
C35          C36   1.404       .  A
C35         C362   1.401       .  A
C35         C357   1.479       .  S
C36          C37   1.397       .  A
C36          H40   1.085       .  S
C37          C38   1.410       .  A
C37         C110   1.481       .  S
C38          H41   1.083       .  S
C42          C43   1.395       .  A
C42          C47   1.420   1_655  A
C43          C44   1.382       .  A
C43          H48   1.087       .  S
C44          C45   1.382   1_655  A
C44         C114   1.447       .  S
C45          C46   1.405       .  A
C45          H49   1.086       .  S
C46          C47   1.418       .  A
C46          C69   1.473       .  S
C47          H50   1.083       .  S
Zn51         O55   1.971       .  S
Zn51         O56   2.049       .  S
Zn51         O60   2.056       .  S
Zn51         O67   2.044       .  S
Zn52         O55   1.938       .  S
Zn52         O57   1.986       .  S
Zn52         O59   1.992       .  S
Zn52         O63   1.994       .  S
Zn53         O55   1.946       .  S
Zn53         O58   2.045       .  S
Zn53         O61   2.061       .  S
Zn53         O64   2.043       .  S
Zn54         O55   1.955       .  S
Zn54         O62   2.016       .  S
Zn54         O65   1.955       .  S
Zn54         O66   1.961       .  S
O56          C68   1.275       .  A
O57          C69   1.273       .  A
O58          C70   1.280       .  A
O59          C68   1.269       .  A
O60          C70   1.280       .  A
O61          C69   1.278       .  A
O62          C71   1.268       .  A
O63          C72   1.267       .  A
O64          C71   1.279       .  A
O65          C72   1.265       .  A
O66          C73   1.267       .  A
O67          C73   1.277       .  A
C68         C238   1.467       .  S
C70         C158   1.481       .  S
C72          C87   1.447       .  S
C73          C76   1.466       .  S
C74          C75   1.403       .  A
C74          C79   1.427       .  A
C74         C232   1.485   1_545  S
C75          C76   1.391       .  A
C75          H80   1.084       .  S
C76          C77   1.402       .  A
C77          C78   1.403       .  A
C77          H81   1.085       .  S
C78          C79   1.412       .  A
C78         C155   1.497       .  S
C79         H738   1.084   1_545  S
H82         C735   1.084       .  S
C83          C84   1.419       .  A
C83          C88   1.395       .  A
C83         C152   1.470       .  S
C84          C85   1.417       .  A
C84          H89   1.083       .  S
C85          C86   1.404       .  A
C85         C111   1.470   1_455  S
C86          C87   1.381       .  A
C86          H90   1.086       .  S
C87          C88   1.383       .  A
C88          H91   1.086       .  S
Zn92         O96   1.942       .  S
Zn92         O97   1.979       .  S
Zn92        O101   1.976       .  S
Zn92        O108   1.996       .  S
Zn93         O96   1.975       .  S
Zn93         O98   2.071       .  S
Zn93        O100   2.063       .  S
Zn93        O104   2.081       .  S
Zn94         O96   1.947       .  S
Zn94         O99   2.057       .  S
Zn94        O102   2.036       .  S
Zn94        O105   2.033       .  S
Zn95         O96   1.957       .  S
Zn95        O103   2.012       .  S
Zn95        O106   1.971       .  S
Zn95        O107   1.951       .  S
O97         C109   1.267       .  A
O98         C110   1.283       .  A
O99         C111   1.275       .  A
O100        C109   1.278       .  A
O101        C111   1.270       .  A
O102        C110   1.279       .  A
O103        C112   1.268       .  A
O104        C113   1.281       .  A
O105        C112   1.278       .  A
O106        C113   1.268       .  A
O107        C114   1.265       .  A
O108        C114   1.268       .  A
C109        C320   1.467       .  S
C112        C124   1.478       .  S
C113        C117   1.476       .  S
C115        C116   1.407       .  A
C115        C120   1.420       .  A
C115        C319   1.478       .  S
C116        C117   1.397       .  A
C116        H121   1.084       .  S
C117        C118   1.404       .  A
C118        C119   1.406       .  A
C118        H122   1.084       .  S
C119        C120   1.414       .  A
C120        H123   1.083       .  S
C124        C125   1.397       .  A
C124        C129   1.422   1_655  A
C125        C126   1.386       .  A
C125        H130   1.086       .  S
C126        C127   1.386   1_655  A
C127        C128   1.404       .  A
C127        H131   1.086       .  S
C128        C129   1.418       .  A
C128        C153   1.476       .  S
C129        H132   1.083       .  S
Zn133       O137   1.928       .  S
Zn133       O138   2.021       .  S
Zn133       O142   1.998       .  S
Zn133       O149   2.015       .  S
Zn134       O137   1.938       .  S
Zn134       O141   1.939       .  S
Zn134       O145   1.986       .  S
Zn134       O467   1.962       .  S
Zn135       O137   1.967       .  S
Zn135       O140   2.024       .  S
Zn135       O143   2.007       .  S
Zn135       O802   1.991   1_545  S
Zn136       O793   1.963       .  S
Zn136       O144   2.081       .  S
Zn136       O147   2.075       .  S
Zn136       O804   2.105       .  S
O137       Zn792   1.963   1_545  S
O138        C150   1.273       .  A
O139       Zn462   1.962       .  S
O139        C151   1.267       .  A
O140        C152   1.270       .  A
O141        C150   1.263       .  A
O142        C152   1.273       .  A
O143        C479   1.269       .  A
O144        C153   1.282       .  A
O145        C810   1.268   1_545  A
O146       Zn791   1.991       .  S
O146        C153   1.275       .  A
O147        C154   1.285       .  A
O148       Zn792   2.105   1_545  S
O148        C155   1.284       .  A
O149        C155   1.277       .  A
C150        C160   1.464       .  S
C151        O471   1.269       .  A
C154        C279   1.489       .  S
C154        O801   1.268       .  A
C156        C161   1.401       .  A
C156        C485   1.424       .  A
C156        C276   1.480       .  S
C157        C158   1.409       .  A
C157        C484   1.424   1_554  A
C157        H162   1.084       .  S
C158        C159   1.394       .  A
C159        C488   1.402   1_554  A
C159        H163   1.085       .  S
C160        C161   1.392       .  A
C160        C487   1.402       .  A
C161        H164   1.085       .  S
C165        C166   1.394       .  A
C165        C170   1.421       .  A
C165        C235   1.474       .  S
C166        C167   1.382       .  A
C166        H171   1.086       .  S
C167        C168   1.379       .  A
C167        C274   1.448   1_554  S
C168        C169   1.405       .  A
C168        H172   1.086       .  S
C169        C170   1.420       .  A
C169        C193   1.474       .  S
C170        H173   1.083       .  S
Zn174       O178   1.934       .  S
Zn174       O179   2.004       .  S
Zn174       O183   1.977       .  S
Zn174       O518   2.015   1_554  S
Zn175       O178   1.970       .  S
Zn175       O180   2.067       .  S
Zn175       O182   2.067       .  S
Zn175       O186   2.069       .  S
Zn176       O178   1.952       .  S
Zn176       O181   2.065       .  S
Zn176       O184   2.041       .  S
Zn176       O187   2.057       .  S
Zn177       O178   1.948       .  S
Zn177       O185   1.990       .  S
Zn177       O188   1.950       .  S
Zn177       O517   1.937       .  S
O179        C191   1.269       .  A
O180        C192   1.282       .  A
O181        C193   1.278       .  A
O182        C191   1.279       .  A
O183        C193   1.272       .  A
O184        C192   1.280       .  A
O185        C194   1.266       .  A
O186        C195   1.280       .  A
O187        C194   1.280       .  A
O188        C195   1.266       .  A
O189       Zn505   1.937       .  S
O189        C196   1.261       .  A
O190       Zn502   2.015       .  S
O190        C196   1.271       .  A
C191        C361   1.476   1_554  S
C192        C324   1.482       .  S
C194        C206   1.476       .  S
C195        C529   1.469       .  S
C196        C251   1.453       .  S
C197        C198   1.425       .  A
C197        C530   1.407       .  A
C197        C358   1.490       .  S
C198        C199   1.413       .  A
C198        H859   1.083   1_545  S
C199        C200   1.399       .  A
C199        C314   1.490       .  S
C200        C201   1.404       .  A
C200        H204   1.085       .  S
C201        C530   1.393       .  A
C201        C523   1.469       .  S
C202        C525   1.407   1_554  A
C202        C529   1.393       .  A
C202        H205   1.084       .  S
H203        C854   1.083       .  S
C206        C207   1.394       .  A
C206        C211   1.424       .  A
C207        C208   1.388       .  A
C207        H212   1.086       .  S
C208        C209   1.386       .  A
C208        C317   1.454       .  S
C209        C210   1.406       .  A
C209        H213   1.086       .  S
C210        C211   1.418       .  A
C210        C233   1.481       .  S
C211        H214   1.082       .  S
Zn215       O219   1.932       .  S
Zn215       O220   1.972       .  S
Zn215       O224   1.947       .  S
Zn215       O231   1.955       .  S
Zn216       O219   1.971       .  S
Zn216       O227   2.110       .  S
Zn216       O877   2.097       .  S
Zn216       O879   2.072       .  S
Zn217       O219   1.969       .  S
Zn217       O222   1.998       .  S
Zn217       O225   1.978       .  S
Zn217       O228   2.024       .  S
Zn218       O219   1.926       .  S
Zn218       O226   2.001       .  S
Zn218       O229   2.014       .  S
Zn218       O230   2.030       .  S
O220        C888   1.266       .  A
O221       Zn872   2.097   1_545  S
O221        C233   1.284       .  A
O222        C234   1.269       .  A
O223       Zn872   2.072   1_545  S
O223        C232   1.284   1_545  A
O224        C234   1.265       .  A
O225        C889   1.273       .  A
O226        C235   1.275       .  A
O227        C236   1.285       .  A
O228        C235   1.268       .  A
O229        C236   1.279       .  A
O230        C237   1.273       .  A
O231        C237   1.266       .  A
C232        O876   1.266       .  A
C233        O881   1.273   1_545  A
C234        C290   1.450       .  S
C236        C283   1.499       .  S
C237        C240   1.472       .  S
C238        C239   1.399       .  A
C238        C243   1.420       .  A
C239        C240   1.393       .  A
C239        H244   1.084       .  S
C240        C241   1.401       .  A
C241        C242   1.403       .  A
C241        H245   1.085       .  S
C242        C243   1.413       .  A
C242        C278   1.492       .  S
C243        H246   1.083       .  S
C247        C248   1.423       .  A
C247        C252   1.395       .  A
C247        C315   1.478       .  S
C248        C249   1.417       .  A
C248        H253   1.083       .  S
C249        C250   1.403       .  A
C249        C277   1.475       .  S
C250        C251   1.384       .  A
C250        H254   1.086       .  S
C251        C252   1.390       .  A
C252        H255   1.086       .  S
Zn256       O260   1.923       .  S
Zn256       O261   1.995       .  S
Zn256       O265   2.031       .  S
Zn256       O272   2.009       .  S
Zn257       O260   1.968       .  S
Zn257       O262   2.001       .  S
Zn257       O264   2.023       .  S
Zn257       O268   1.988       .  S
Zn258       O260   1.924       .  S
Zn258       O263   1.949       .  S
Zn258       O269   1.964       .  S
Zn258       O594   1.932       .  S
Zn259       O260   1.965       .  S
Zn259       O267   2.059       .  S
Zn259       O270   2.074       .  S
Zn259       O271   2.086       .  S
O261        C273   1.274       .  A
O262        C602   1.269       .  A
O263        C275   1.264       .  A
O264        C273   1.269       .  A
O265        C275   1.273       .  A
O266       Zn586   1.932       .  S
O266        C274   1.263       .  A
O267        C276   1.282       .  A
O268        C277   1.274       .  A
O269        C276   1.265       .  A
O270        C277   1.281       .  A
O271        C278   1.282       .  A
O272        C278   1.278       .  A
C273        C288   1.472       .  S
C274        O590   1.269       .  A
C275        C281   1.471       .  S
C279        C280   1.404       .  A
C279        C612   1.430       .  A
C280        C281   1.392       .  A
C280        H285   1.083       .  S
C281        C610   1.400       .  A
C282        C283   1.400       .  A
C282        C609   1.400   1_554  A
C282        H286   1.085       .  S
C283        C284   1.416       .  A
C284        C607   1.430   1_554  A
C284        H287   1.083       .  S
C288        C289   1.395       .  A
C288        C293   1.420       .  A
C289        C290   1.382       .  A
C289        H294   1.086       .  S
C290        C291   1.381       .  A
C291        C292   1.407       .  A
C291        H295   1.086       .  S
C292        C293   1.418       .  A
C292        C318   1.475       .  S
C293        H296   1.082       .  S
Zn297       O301   1.975       .  S
Zn297       O302   2.074       .  S
Zn297       O306   2.071       .  S
Zn297       O313   2.070       .  S
Zn298       O301   1.956       .  S
Zn298       O303   2.056       .  S
Zn298       O305   2.055       .  S
Zn298       O965   2.069   1_545  S
Zn299       O301   1.952       .  S
Zn299       O304   1.947       .  S
Zn299       O307   1.991       .  S
Zn299       O310   1.942       .  S
Zn300       O301   1.944       .  S
Zn300       O308   2.019       .  S
Zn300       O967   1.972   1_545  S
Zn300       O968   2.010   1_545  S
O302        C314   1.283       .  A
O303        C315   1.279       .  A
O304        C316   1.266       .  A
O305        C314   1.282       .  A
O306        C316   1.280       .  A
O307        C315   1.265       .  A
O308        C317   1.271       .  A
O309       Zn954   2.069       .  S
O309        C318   1.279       .  A
O310        C317   1.262       .  A
O311       Zn956   1.972       .  S
O311        C318   1.272       .  A
O312       Zn956   2.010       .  S
O312        C319   1.270       .  A
O313        C975   1.279   1_545  A
C316        C322   1.466       .  S
C319        O969   1.279       .  A
C320        C321   1.402       .  A
C320        C325   1.416       .  A
C321        C322   1.394       .  A
C321        H326   1.084       .  S
C322        C323   1.404       .  A
C323        C324   1.400       .  A
C323        H327   1.085       .  S
C324        C325   1.410       .  A
C325        H328   1.084       .  S
C329        C330   1.399       .  A
C329        C334   1.423       .  A
C329        C399   1.482       .  S
C330        C331   1.389       .  A
C330        H335   1.086       .  S
C331        C332   1.384       .  A
C331        C479   1.454       .  S
C332        C333   1.403   1_455  A
C332        H336   1.086       .  S
C333        C334   1.419   1_655  A
C333        C359   1.476       .  S
C334        H337   1.082   1_455  S
Zn338       O342   1.937       .  S
Zn338       O343   1.999       .  S
Zn338       O347   2.041       .  S
Zn338       O354   2.025       .  S
Zn339       O342   1.975       .  S
Zn339       O344   1.998       .  S
Zn339       O346   2.025       .  S
Zn339       O350   1.991       .  S
Zn340       O342   1.944       .  S
Zn340       O345   1.976       .  S
Zn341       O342   1.970       .  S
Zn341      O1005   2.059       .  S
Zn341      O1008   2.074       .  S
Zn341       O353   2.097       .  S
O343        C355   1.274       .  A
O345        C357   1.269       .  A
O346        C355   1.269       .  A
O347        C357   1.274       .  A
O348        C356   1.268       .  A
O349       Zn997   2.059   1_545  S
O349        C358   1.282       .  A
O350       C1015   1.274       .  A
O351        C686   1.271   1_556  A
O352       Zn997   2.074   1_545  S
O352        C359   1.280       .  A
O353        C360   1.284       .  A
O354        C360   1.279       .  A
C355        C370   1.472       .  S
C356        C454   1.454       .  S
C358        O679   1.271   1_545  A
C359       O1006   1.274   1_545  A
C360        C447   1.498       .  S
C361        C366   1.418       .  A
C362        H367   1.084       .  S
C363        C364   1.404   1_554  A
C364        C365   1.397       .  A
C364        H368   1.085       .  S
C365        C366   1.410       .  A
C365        C438   1.481       .  S
C366        H369   1.083       .  S
C370        C371   1.395       .  A
C370        C375   1.420   1_655  A
C371        C372   1.382       .  A
C371        H376   1.087       .  S
C372        C373   1.382   1_655  A
C372        C442   1.447       .  S
C373        C374   1.405       .  A
C373        H377   1.086       .  S
C374        C375   1.418       .  A
C374        C397   1.473       .  S
C375        H378   1.083       .  S
Zn379       O383   1.971       .  S
Zn379       O384   2.049       .  S
Zn379       O388   2.056       .  S
Zn379       O395   2.044       .  S
Zn380       O383   1.938       .  S
Zn380       O385   1.986       .  S
Zn380       O387   1.992       .  S
Zn380       O391   1.994       .  S
Zn381       O383   1.946       .  S
Zn381       O386   2.045       .  S
Zn381       O389   2.061       .  S
Zn381       O392   2.043       .  S
Zn382       O383   1.955       .  S
Zn382       O390   2.016       .  S
Zn382       O393   1.955       .  S
Zn382       O394   1.961       .  S
O384        C396   1.275       .  A
O385        C397   1.273       .  A
O386        C398   1.280       .  A
O387        C396   1.269       .  A
O388        C398   1.280       .  A
O389        C397   1.278       .  A
O390        C399   1.268       .  A
O391        C400   1.267       .  A
O392        C399   1.279       .  A
O393        C400   1.265       .  A
O394        C401   1.267       .  A
O395        C401   1.277       .  A
C396        C566   1.467       .  S
C398        C486   1.481       .  S
C400        C415   1.447       .  S
C401        C404   1.466       .  S
C402        C403   1.403       .  A
C402        C407   1.427       .  A
C402        C560   1.485   1_545  S
C403        C404   1.391       .  A
C403        H408   1.084       .  S
C404        C405   1.402       .  A
C405        C406   1.403       .  A
C405        H409   1.085       .  S
C406        C407   1.412       .  A
C406        C483   1.497       .  S
C407       H1066   1.084   1_545  S
H410       C1063   1.084       .  S
C411        C412   1.419       .  A
C411        C416   1.395       .  A
C411        C480   1.470       .  S
C412        C413   1.417       .  A
C412        H417   1.083       .  S
C413        C414   1.404       .  A
C413        C439   1.470   1_455  S
C414        C415   1.381       .  A
C414        H418   1.086       .  S
C415        C416   1.383       .  A
C416        H419   1.086       .  S
Zn420       O424   1.942       .  S
Zn420       O425   1.979       .  S
Zn420       O429   1.976       .  S
Zn420       O436   1.996       .  S
Zn421       O424   1.975       .  S
Zn421       O426   2.071       .  S
Zn421       O428   2.063       .  S
Zn421       O432   2.081       .  S
Zn422       O424   1.947       .  S
Zn422       O427   2.057       .  S
Zn422       O430   2.036       .  S
Zn422       O433   2.033       .  S
Zn423       O424   1.957       .  S
Zn423       O431   2.012       .  S
Zn423       O434   1.971       .  S
Zn423       O435   1.951       .  S
O425        C437   1.267       .  A
O426        C438   1.283       .  A
O427        C439   1.275       .  A
O428        C437   1.278       .  A
O429        C439   1.270       .  A
O430        C438   1.279       .  A
O431        C440   1.268       .  A
O432        C441   1.281       .  A
O433        C440   1.278       .  A
O434        C441   1.268       .  A
O435        C442   1.265       .  A
O436        C442   1.268       .  A
C437        C648   1.467       .  S
C440        C452   1.478       .  S
C441        C445   1.476       .  S
C443        C444   1.407       .  A
C443        C448   1.420       .  A
C443        C647   1.478       .  S
C444        C445   1.397       .  A
C444        H449   1.084       .  S
C445        C446   1.404       .  A
C446        C447   1.406       .  A
C446        H450   1.084       .  S
C447        C448   1.414       .  A
C448        H451   1.083       .  S
C452        C453   1.397       .  A
C452        C457   1.422   1_655  A
C453        C454   1.386       .  A
C453        H458   1.086       .  S
C454        C455   1.386   1_655  A
C455        C456   1.404       .  A
C455        H459   1.086       .  S
C456        C457   1.418       .  A
C456        C481   1.476       .  S
C457        H460   1.083       .  S
Zn461       O465   1.928       .  S
Zn461       O466   2.021       .  S
Zn461       O470   1.998       .  S
Zn461       O477   2.015       .  S
Zn462       O465   1.938       .  S
Zn462       O469   1.939       .  S
Zn462       O473   1.986       .  S
Zn463       O465   1.967       .  S
Zn463       O468   2.024       .  S
Zn463       O471   2.007       .  S
Zn463      O1130   1.991   1_545  S
Zn464      O1121   1.963       .  S
Zn464       O472   2.081       .  S
Zn464       O475   2.075       .  S
Zn464      O1132   2.105       .  S
O465      Zn1120   1.963   1_545  S
O466        C478   1.273       .  A
O467        C479   1.267       .  A
O468        C480   1.270       .  A
O469        C478   1.263       .  A
O470        C480   1.273       .  A
O472        C481   1.282       .  A
O473       C1138   1.268   1_545  A
O474      Zn1119   1.991       .  S
O474        C481   1.275       .  A
O475        C482   1.285       .  A
O476      Zn1120   2.105   1_545  S
O476        C483   1.284       .  A
O477        C483   1.277       .  A
C478        C488   1.464       .  S
C482        C607   1.489       .  S
C482       O1129   1.268       .  A
C484        C489   1.401       .  A
C484        C604   1.480       .  S
C485        C486   1.409       .  A
C485        H490   1.084       .  S
C486        C487   1.394       .  A
C487        H491   1.085       .  S
C488        C489   1.392       .  A
C489        H492   1.085       .  S
C493        C494   1.394       .  A
C493        C498   1.421       .  A
C493        C563   1.474       .  S
C494        C495   1.382       .  A
C494        H499   1.086       .  S
C495        C496   1.379       .  A
C495        C602   1.448       .  S
C496        C497   1.405       .  A
C496        H500   1.086       .  S
C497        C498   1.420       .  A
C497        C521   1.474       .  S
C498        H501   1.083       .  S
Zn502       O506   1.934       .  S
Zn502       O507   2.004       .  S
Zn502       O511   1.977       .  S
Zn503       O506   1.970       .  S
Zn503       O508   2.067       .  S
Zn503       O510   2.067       .  S
Zn503       O514   2.069       .  S
Zn504       O506   1.952       .  S
Zn504       O509   2.065       .  S
Zn504       O512   2.041       .  S
Zn504       O515   2.057       .  S
Zn505       O506   1.948       .  S
Zn505       O513   1.990       .  S
Zn505       O516   1.950       .  S
O507        C519   1.269       .  A
O508        C520   1.282       .  A
O509        C521   1.278       .  A
O510        C519   1.279       .  A
O511        C521   1.272       .  A
O512        C520   1.280       .  A
O513        C522   1.266       .  A
O514        C523   1.280       .  A
O515        C522   1.280       .  A
O516        C523   1.266       .  A
O517        C524   1.261   1_554  A
O518        C524   1.271       .  A
C520        C652   1.482       .  S
C522        C534   1.476       .  S
C524        C579   1.453       .  S
C525        C526   1.425       .  A
C526        C527   1.413       .  A
C526       H1187   1.083   1_545  S
C527        C528   1.399       .  A
C527        C642   1.490       .  S
C528        C529   1.404   1_556  A
C528        H532   1.085       .  S
C530        H533   1.084       .  S
H531       C1182   1.083       .  S
C534        C535   1.394       .  A
C534        C539   1.424       .  A
C535        C536   1.388       .  A
C535        H540   1.086       .  S
C536        C537   1.386       .  A
C536        C645   1.454       .  S
C537        C538   1.406       .  A
C537        H541   1.086       .  S
C538        C539   1.418       .  A
C538        C561   1.481       .  S
C539        H542   1.082       .  S
Zn543       O547   1.932       .  S
Zn543       O548   1.972       .  S
Zn543       O552   1.947       .  S
Zn543       O559   1.955       .  S
Zn544       O547   1.971       .  S
Zn544      O1205   2.097       .  S
Zn544      O1207   2.072       .  S
Zn544       O555   2.110       .  S
Zn545       O547   1.969       .  S
Zn545       O550   1.998       .  S
Zn545       O553   1.978       .  S
Zn545       O556   2.024       .  S
Zn546       O547   1.926       .  S
Zn546       O554   2.001       .  S
Zn546       O557   2.014       .  S
Zn546       O558   2.030       .  S
O548       C1216   1.266       .  A
O549      Zn1200   2.097   1_545  S
O549        C561   1.284       .  A
O550        C562   1.269       .  A
O551      Zn1200   2.072   1_545  S
O551        C560   1.284   1_545  A
O552        C562   1.265       .  A
O553       C1217   1.273       .  A
O554        C563   1.275       .  A
O555        C564   1.285       .  A
O556        C563   1.268       .  A
O557        C564   1.279       .  A
O558        C565   1.273       .  A
O559        C565   1.266       .  A
C560       O1204   1.266       .  A
C561       O1209   1.273   1_545  A
C562        C618   1.450       .  S
C564        C611   1.499       .  S
C565        C568   1.472       .  S
C566        C567   1.399       .  A
C566        C571   1.420       .  A
C567        C568   1.393       .  A
C567        H572   1.084       .  S
C568        C569   1.401       .  A
C569        C570   1.403       .  A
C569        H573   1.085       .  S
C570        C571   1.413       .  A
C570        C606   1.492       .  S
C571        H574   1.083       .  S
C575        C576   1.423       .  A
C575        C580   1.395       .  A
C575        C643   1.478       .  S
C576        C577   1.417       .  A
C576        H581   1.083       .  S
C577        C578   1.403       .  A
C577        C605   1.475       .  S
C578        C579   1.384       .  A
C578        H582   1.086       .  S
C579        C580   1.390       .  A
C580        H583   1.086       .  S
Zn584       O588   1.923       .  S
Zn584       O589   1.995       .  S
Zn584       O593   2.031       .  S
Zn584       O600   2.009       .  S
Zn585       O588   1.968       .  S
Zn585       O590   2.001       .  S
Zn585       O592   2.023       .  S
Zn585       O596   1.988       .  S
Zn586       O588   1.924       .  S
Zn586       O591   1.949       .  S
Zn586       O597   1.964       .  S
Zn587       O588   1.965       .  S
Zn587       O595   2.059       .  S
Zn587       O598   2.074       .  S
Zn587       O599   2.086       .  S
O589        C601   1.274       .  A
O591        C603   1.264       .  A
O592        C601   1.269       .  A
O593        C603   1.273       .  A
O594        C602   1.263       .  A
O595        C604   1.282       .  A
O596        C605   1.274       .  A
O597        C604   1.265       .  A
O598        C605   1.281       .  A
O599        C606   1.282       .  A
O600        C606   1.278       .  A
C601        C616   1.472       .  S
C603        C609   1.471       .  S
C607        C608   1.404       .  A
C608        C609   1.392       .  A
C608        H613   1.083       .  S
C610        C611   1.400       .  A
C610        H614   1.085       .  S
C611        C612   1.416       .  A
C612        H615   1.083       .  S
C616        C617   1.395       .  A
C616        C621   1.420       .  A
C617        C618   1.382       .  A
C617        H622   1.086       .  S
C618        C619   1.381       .  A
C619        C620   1.407       .  A
C619        H623   1.086       .  S
C620        C621   1.418       .  A
C620        C646   1.475       .  S
C621        H624   1.083       .  S
Zn625       O629   1.975       .  S
Zn625       O630   2.074       .  S
Zn625       O634   2.071       .  S
Zn625       O641   2.070       .  S
Zn626       O629   1.956       .  S
Zn626       O631   2.056       .  S
Zn626       O633   2.055       .  S
Zn626      O1293   2.069   1_545  S
Zn627       O629   1.952       .  S
Zn627       O632   1.947       .  S
Zn627       O635   1.991       .  S
Zn627       O638   1.942       .  S
Zn628       O629   1.944       .  S
Zn628       O636   2.019       .  S
Zn628      O1295   1.972   1_545  S
Zn628      O1296   2.010   1_545  S
O630        C642   1.283       .  A
O631        C643   1.279       .  A
O632        C644   1.266       .  A
O633        C642   1.282       .  A
O634        C644   1.280       .  A
O635        C643   1.265       .  A
O636        C645   1.271       .  A
O637      Zn1282   2.069       .  S
O637        C646   1.279       .  A
O638        C645   1.262       .  A
O639      Zn1284   1.972       .  S
O639        C646   1.272       .  A
O640      Zn1284   2.010       .  S
O640        C647   1.270       .  A
O641       C1303   1.279   1_545  A
C644        C650   1.466       .  S
C647       O1297   1.279       .  A
C648        C649   1.402       .  A
C648        C653   1.416       .  A
C649        C650   1.394       .  A
C649        H654   1.084       .  S
C650        C651   1.404       .  A
C651        C652   1.400       .  A
C651        H655   1.085       .  S
C652        C653   1.410       .  A
C653        H656   1.084       .  S
C657        C658   1.399       .  A
C657        C662   1.423       .  A
C657        C727   1.482       .  S
C658        C659   1.389       .  A
C658        H663   1.086       .  S
C659        C660   1.384       .  A
C659        C807   1.454   1_554  S
C660        C661   1.403   1_455  A
C660        H664   1.086       .  S
C661        C662   1.419   1_655  A
C661        C687   1.476       .  S
C662        H665   1.082   1_455  S
Zn666       O670   1.937       .  S
Zn666       O671   1.999       .  S
Zn666       O675   2.041       .  S
Zn666       O682   2.025       .  S
Zn667       O670   1.975       .  S
Zn667       O672   1.998       .  S
Zn667       O674   2.025       .  S
Zn667       O678   1.991       .  S
Zn668       O670   1.944       .  S
Zn668       O673   1.976       .  S
Zn668      O1004   1.972   1_554  S
Zn668      O1007   2.007   1_554  S
Zn669       O670   1.970       .  S
Zn669       O681   2.097       .  S
O671        C683   1.274       .  A
O672       C1012   1.268   1_554  A
O673        C685   1.269       .  A
O674        C683   1.269       .  A
O675        C685   1.274       .  A
O676       Zn996   1.972       .  S
O676        C684   1.268       .  A
O677        C686   1.282       .  A
O679       Zn996   2.007       .  S
O680        C687   1.280       .  A
O681        C688   1.284       .  A
O682        C688   1.279       .  A
C683        C698   1.472       .  S
C684        C782   1.454       .  S
C684       O1000   1.268       .  A
C685       C1019   1.479       .  S
C686       C1181   1.490   1_554  S
C688        C775   1.498       .  S
C689       C1018   1.406       .  A
C689        C694   1.418       .  A
C689       C1175   1.476       .  S
C690       C1017   1.406   1_554  A
C690       C1019   1.401       .  A
C690        H695   1.084       .  S
C691       C1018   1.401       .  A
C691        C692   1.404       .  A
C691       C1013   1.479       .  S
C692        C693   1.397       .  A
C692        H696   1.085       .  S
C693        C694   1.410       .  A
C693        C766   1.481       .  S
C694        H697   1.083       .  S
C698        C699   1.395       .  A
C698        C703   1.420   1_655  A
C699        C700   1.382       .  A
C699        H704   1.087       .  S
C700        C701   1.382   1_655  A
C700        C770   1.447       .  S
C701        C702   1.405       .  A
C701        H705   1.086       .  S
C702        C703   1.418       .  A
C702        C725   1.473       .  S
C703        H706   1.083       .  S
Zn707       O711   1.971       .  S
Zn707       O712   2.049       .  S
Zn707       O716   2.056       .  S
Zn707       O723   2.044       .  S
Zn708       O711   1.938       .  S
Zn708       O713   1.986       .  S
Zn708       O715   1.992       .  S
Zn708       O719   1.994       .  S
Zn709       O711   1.946       .  S
Zn709       O714   2.045       .  S
Zn709       O717   2.061       .  S
Zn709       O720   2.043       .  S
Zn710       O711   1.955       .  S
Zn710       O718   2.016       .  S
Zn710       O721   1.955       .  S
Zn710       O722   1.961       .  S
O712        C724   1.275       .  A
O713        C725   1.273       .  A
O714        C726   1.280       .  A
O715        C724   1.269       .  A
O716        C726   1.280       .  A
O717        C725   1.278       .  A
O718        C727   1.268       .  A
O719        C728   1.267       .  A
O720        C727   1.279       .  A
O721        C728   1.265       .  A
O722        C729   1.267       .  A
O723        C729   1.277       .  A
C724        C894   1.467       .  S
C726        C814   1.481       .  S
C728        C743   1.447       .  S
C729        C732   1.466       .  S
C730        C731   1.403       .  A
C730        C735   1.427       .  A
C730        C888   1.485       .  S
C731        C732   1.391       .  A
C731        H736   1.084       .  S
C732        C733   1.402       .  A
C733        C734   1.403       .  A
C733        H737   1.085       .  S
C734        C735   1.412       .  A
C734        C811   1.497       .  S
C739        C740   1.419       .  A
C739        C744   1.395       .  A
C739        C808   1.470       .  S
C740        C741   1.417       .  A
C740        H745   1.083       .  S
C741        C742   1.404       .  A
C741        C767   1.470   1_455  S
C742        C743   1.381       .  A
C742        H746   1.086       .  S
C743        C744   1.383       .  A
C744        H747   1.086       .  S
Zn748       O752   1.942       .  S
Zn748       O753   1.979       .  S
Zn748       O757   1.976       .  S
Zn748       O764   1.996       .  S
Zn749       O752   1.975       .  S
Zn749       O754   2.071       .  S
Zn749       O756   2.063       .  S
Zn749       O760   2.081       .  S
Zn750       O752   1.947       .  S
Zn750       O755   2.057       .  S
Zn750       O758   2.036       .  S
Zn750       O761   2.033       .  S
Zn751       O752   1.957       .  S
Zn751       O759   2.012       .  S
Zn751       O762   1.971       .  S
Zn751       O763   1.951       .  S
O753        C765   1.267       .  A
O754        C766   1.283       .  A
O755        C767   1.275       .  A
O756        C765   1.278       .  A
O757        C767   1.270       .  A
O758        C766   1.279       .  A
O759        C768   1.268       .  A
O760        C769   1.281       .  A
O761        C768   1.278       .  A
O762        C769   1.268       .  A
O763        C770   1.265       .  A
O764        C770   1.268       .  A
C765        C976   1.467       .  S
C768        C780   1.478       .  S
C769        C773   1.476       .  S
C771        C772   1.407       .  A
C771        C776   1.420       .  A
C771        C975   1.478       .  S
C772        C773   1.397       .  A
C772        H777   1.084       .  S
C773        C774   1.404       .  A
C774        C775   1.406       .  A
C774        H778   1.084       .  S
C775        C776   1.414       .  A
C776        H779   1.083       .  S
C780        C781   1.397       .  A
C780        C785   1.422   1_655  A
C781        C782   1.386       .  A
C781        H786   1.086       .  S
C782        C783   1.386   1_655  A
C783        C784   1.404       .  A
C783        H787   1.086       .  S
C784        C785   1.418       .  A
C784        C809   1.476       .  S
C785        H788   1.083       .  S
Zn789       O793   1.928       .  S
Zn789       O794   2.021       .  S
Zn789       O798   1.998       .  S
Zn789       O805   2.015       .  S
Zn790       O793   1.938       .  S
Zn790      O1123   1.962       .  S
Zn790       O797   1.939       .  S
Zn790       O801   1.986       .  S
Zn791       O793   1.967       .  S
Zn791       O796   2.024       .  S
Zn791       O799   2.007       .  S
Zn792       O800   2.081       .  S
Zn792       O803   2.075       .  S
O794        C806   1.273       .  A
O795      Zn1118   1.962       .  S
O795        C807   1.267       .  A
O796        C808   1.270       .  A
O797        C806   1.263       .  A
O798        C808   1.273       .  A
O799       C1135   1.269       .  A
O800        C809   1.282       .  A
O802        C809   1.275       .  A
O803        C810   1.285       .  A
O804        C811   1.284       .  A
O805        C811   1.277       .  A
C806        C816   1.464       .  S
C807       O1127   1.269       .  A
C810        C935   1.489       .  S
C812       C1141   1.424       .  A
C812        C817   1.401       .  A
C812        C932   1.480       .  S
C813       C1140   1.424   1_554  A
C813        C814   1.409       .  A
C813        H818   1.084       .  S
C814        C815   1.394       .  A
C815       C1144   1.402   1_554  A
C815        H819   1.085       .  S
C816       C1143   1.402       .  A
C816        C817   1.392       .  A
C817        H820   1.085       .  S
C821        C822   1.394       .  A
C821        C826   1.421       .  A
C821        C891   1.474       .  S
C822        C823   1.382       .  A
C822        H827   1.086       .  S
C823        C824   1.379       .  A
C823        C930   1.448   1_554  S
C824        C825   1.405       .  A
C824        H828   1.086       .  S
C825        C826   1.420       .  A
C825        C849   1.474       .  S
C826        H829   1.083       .  S
Zn830       O834   1.934       .  S
Zn830       O835   2.004       .  S
Zn830       O839   1.977       .  S
Zn830      O1174   2.015   1_554  S
Zn831       O834   1.970       .  S
Zn831       O836   2.067       .  S
Zn831       O838   2.067       .  S
Zn831       O842   2.069       .  S
Zn832       O834   1.952       .  S
Zn832       O837   2.065       .  S
Zn832       O840   2.041       .  S
Zn832       O843   2.057       .  S
Zn833       O834   1.948       .  S
Zn833       O841   1.990       .  S
Zn833       O844   1.950       .  S
Zn833      O1173   1.937       .  S
O835        C847   1.269       .  A
O836        C848   1.282       .  A
O837        C849   1.278       .  A
O838        C847   1.279       .  A
O839        C849   1.272       .  A
O840        C848   1.280       .  A
O841        C850   1.266       .  A
O842        C851   1.280       .  A
O843        C850   1.280       .  A
O844        C851   1.266       .  A
O845      Zn1161   1.937       .  S
O845        C852   1.261       .  A
O846      Zn1158   2.015       .  S
O846        C852   1.271       .  A
C847       C1017   1.476   1_554  S
C848        C980   1.482       .  S
C850        C862   1.476       .  S
C851       C1185   1.469       .  S
C852        C907   1.453       .  S
C853        C854   1.425       .  A
C853       C1186   1.407       .  A
C853       C1014   1.490       .  S
C854        C855   1.413       .  A
C855        C856   1.399       .  A
C855        C970   1.490       .  S
C856        C857   1.404       .  A
C856        H860   1.085       .  S
C857       C1186   1.393       .  A
C857       C1179   1.469       .  S
C858       C1181   1.407   1_554  A
C858       C1185   1.393       .  A
C858        H861   1.084       .  S
C862        C863   1.394       .  A
C862        C867   1.424       .  A
C863        C864   1.388       .  A
C863        H868   1.086       .  S
C864        C865   1.386       .  A
C864        C973   1.454       .  S
C865        C866   1.406       .  A
C865        H869   1.086       .  S
C866        C867   1.418       .  A
C866        C889   1.481       .  S
C867        H870   1.082       .  S
Zn871       O875   1.932       .  S
Zn871       O876   1.972       .  S
Zn871       O880   1.947       .  S
Zn871       O887   1.955       .  S
Zn872       O875   1.971       .  S
Zn872       O883   2.110       .  S
Zn873       O875   1.969       .  S
Zn873       O878   1.998       .  S
Zn873       O881   1.978       .  S
Zn873       O884   2.024       .  S
Zn874       O875   1.926       .  S
Zn874       O882   2.001       .  S
Zn874       O885   2.014       .  S
Zn874       O886   2.030       .  S
O877        C889   1.284       .  A
O878        C890   1.269       .  A
O879        C888   1.284       .  A
O880        C890   1.265       .  A
O882        C891   1.275       .  A
O883        C892   1.285       .  A
O884        C891   1.268       .  A
O885        C892   1.279       .  A
O886        C893   1.273       .  A
O887        C893   1.266       .  A
C890        C946   1.450       .  S
C892        C939   1.499       .  S
C893        C896   1.472       .  S
C894        C895   1.399       .  A
C894        C899   1.420       .  A
C895        C896   1.393       .  A
C895        H900   1.084       .  S
C896        C897   1.401       .  A
C897        C898   1.403       .  A
C897        H901   1.085       .  S
C898        C899   1.413       .  A
C898        C934   1.492       .  S
C899        H902   1.083       .  S
C903        C904   1.423       .  A
C903        C908   1.395       .  A
C903        C971   1.478       .  S
C904        C905   1.417       .  A
C904        H909   1.083       .  S
C905        C906   1.403       .  A
C905        C933   1.475       .  S
C906        C907   1.384       .  A
C906        H910   1.086       .  S
C907        C908   1.390       .  A
C908        H911   1.086       .  S
Zn912       O916   1.923       .  S
Zn912       O917   1.995       .  S
Zn912       O921   2.031       .  S
Zn912       O928   2.009       .  S
Zn913       O916   1.968       .  S
Zn913       O918   2.001       .  S
Zn913       O920   2.023       .  S
Zn913       O924   1.988       .  S
Zn914       O916   1.924       .  S
Zn914       O919   1.949       .  S
Zn914      O1250   1.932       .  S
Zn914       O925   1.964       .  S
Zn915       O916   1.965       .  S
Zn915       O923   2.059       .  S
Zn915       O926   2.074       .  S
Zn915       O927   2.086       .  S
O917        C929   1.274       .  A
O918       C1258   1.269       .  A
O919        C931   1.264       .  A
O920        C929   1.269       .  A
O921        C931   1.273       .  A
O922      Zn1242   1.932       .  S
O922        C930   1.263       .  A
O923        C932   1.282       .  A
O924        C933   1.274       .  A
O925        C932   1.265       .  A
O926        C933   1.281       .  A
O927        C934   1.282       .  A
O928        C934   1.278       .  A
C929        C944   1.472       .  S
C930       O1246   1.269       .  A
C931        C937   1.471       .  S
C935        C936   1.404       .  A
C935       C1268   1.430       .  A
C936        C937   1.392       .  A
C936        H941   1.083       .  S
C937       C1266   1.400       .  A
C938       C1265   1.400   1_554  A
C938        C939   1.400       .  A
C938        H942   1.085       .  S
C939        C940   1.416       .  A
C940       C1263   1.430   1_554  A
C940        H943   1.083       .  S
C944        C945   1.395       .  A
C944        C949   1.420       .  A
C945        C946   1.382       .  A
C945        H950   1.086       .  S
C946        C947   1.381       .  A
C947        C948   1.407       .  A
C947        H951   1.086       .  S
C948        C949   1.418       .  A
C948        C974   1.475       .  S
C949        H952   1.082       .  S
Zn953       O957   1.975       .  S
Zn953       O958   2.074       .  S
Zn953       O962   2.071       .  S
Zn953       O969   2.070       .  S
Zn954       O957   1.956       .  S
Zn954       O959   2.056       .  S
Zn954       O961   2.055       .  S
Zn955       O957   1.952       .  S
Zn955       O960   1.947       .  S
Zn955       O963   1.991       .  S
Zn955       O966   1.942       .  S
Zn956       O957   1.944       .  S
Zn956       O964   2.019       .  S
O958        C970   1.283       .  A
O959        C971   1.279       .  A
O960        C972   1.266       .  A
O961        C970   1.282       .  A
O962        C972   1.280       .  A
O963        C971   1.265       .  A
O964        C973   1.271       .  A
O965        C974   1.279       .  A
O966        C973   1.262       .  A
O967        C974   1.272       .  A
O968        C975   1.270       .  A
C972        C978   1.466       .  S
C976        C977   1.402       .  A
C976        C981   1.416       .  A
C977        C978   1.394       .  A
C977        H982   1.084       .  S
C978        C979   1.404       .  A
C979        C980   1.400       .  A
C979        H983   1.085       .  S
C980        C981   1.410       .  A
C981        H984   1.084       .  S
C985        C986   1.399       .  A
C985        C990   1.423       .  A
C985       C1055   1.482       .  S
C986        C987   1.389       .  A
C986        H991   1.086       .  S
C987        C988   1.384       .  A
C987       C1135   1.454       .  S
C988        C989   1.403   1_455  A
C988        H992   1.086       .  S
C989        C990   1.419   1_655  A
C989       C1015   1.476       .  S
C990        H993   1.082   1_455  S
Zn994       O998   1.937       .  S
Zn994       O999   1.999       .  S
Zn994      O1003   2.041       .  S
Zn994      O1010   2.025       .  S
Zn995       O998   1.975       .  S
Zn995      O1000   1.998       .  S
Zn995      O1002   2.025       .  S
Zn995      O1006   1.991       .  S
Zn996       O998   1.944       .  S
Zn996      O1001   1.976       .  S
Zn997       O998   1.970       .  S
Zn997      O1009   2.097       .  S
O999       C1011   1.274       .  A
O1001      C1013   1.269       .  A
O1002      C1011   1.269       .  A
O1003      C1013   1.274       .  A
O1004      C1012   1.268       .  A
O1005      C1014   1.282       .  A
O1008      C1015   1.280       .  A
O1009      C1016   1.284       .  A
O1010      C1016   1.279       .  A
C1011      C1026   1.472       .  S
C1012      C1110   1.454       .  S
C1016      C1103   1.498       .  S
C1017      C1022   1.418       .  A
C1018      H1023   1.084       .  S
C1019      C1020   1.404   1_554  A
C1020      C1021   1.397       .  A
C1020      H1024   1.085       .  S
C1021      C1022   1.410       .  A
C1021      C1094   1.481       .  S
C1022      H1025   1.083       .  S
C1026      C1027   1.395       .  A
C1026      C1031   1.420   1_655  A
C1027      C1028   1.382       .  A
C1027      H1032   1.087       .  S
C1028      C1029   1.382   1_655  A
C1028      C1098   1.447       .  S
C1029      C1030   1.405       .  A
C1029      H1033   1.086       .  S
C1030      C1031   1.418       .  A
C1030      C1053   1.473       .  S
C1031      H1034   1.083       .  S
Zn1035     O1039   1.971       .  S
Zn1035     O1040   2.049       .  S
Zn1035     O1044   2.056       .  S
Zn1035     O1051   2.044       .  S
Zn1036     O1039   1.938       .  S
Zn1036     O1041   1.986       .  S
Zn1036     O1043   1.992       .  S
Zn1036     O1047   1.994       .  S
Zn1037     O1039   1.946       .  S
Zn1037     O1042   2.045       .  S
Zn1037     O1045   2.061       .  S
Zn1037     O1048   2.043       .  S
Zn1038     O1039   1.955       .  S
Zn1038     O1046   2.016       .  S
Zn1038     O1049   1.955       .  S
Zn1038     O1050   1.961       .  S
O1040      C1052   1.275       .  A
O1041      C1053   1.273       .  A
O1042      C1054   1.280       .  A
O1043      C1052   1.269       .  A
O1044      C1054   1.280       .  A
O1045      C1053   1.278       .  A
O1046      C1055   1.268       .  A
O1047      C1056   1.267       .  A
O1048      C1055   1.279       .  A
O1049      C1056   1.265       .  A
O1050      C1057   1.267       .  A
O1051      C1057   1.277       .  A
C1052      C1222   1.467       .  S
C1054      C1142   1.481       .  S
C1056      C1071   1.447       .  S
C1057      C1060   1.466       .  S
C1058      C1059   1.403       .  A
C1058      C1063   1.427       .  A
C1058      C1216   1.485       .  S
C1059      C1060   1.391       .  A
C1059      H1064   1.084       .  S
C1060      C1061   1.402       .  A
C1061      C1062   1.403       .  A
C1061      H1065   1.085       .  S
C1062      C1063   1.412       .  A
C1062      C1139   1.497       .  S
C1067      C1068   1.419       .  A
C1067      C1072   1.395       .  A
C1067      C1136   1.470       .  S
C1068      C1069   1.417       .  A
C1068      H1073   1.083       .  S
C1069      C1070   1.404       .  A
C1069      C1095   1.470   1_455  S
C1070      C1071   1.381       .  A
C1070      H1074   1.086       .  S
C1071      C1072   1.383       .  A
C1072      H1075   1.086       .  S
Zn1076     O1080   1.942       .  S
Zn1076     O1081   1.979       .  S
Zn1076     O1085   1.976       .  S
Zn1076     O1092   1.996       .  S
Zn1077     O1080   1.975       .  S
Zn1077     O1082   2.071       .  S
Zn1077     O1084   2.063       .  S
Zn1077     O1088   2.081       .  S
Zn1078     O1080   1.947       .  S
Zn1078     O1083   2.057       .  S
Zn1078     O1086   2.036       .  S
Zn1078     O1089   2.033       .  S
Zn1079     O1080   1.957       .  S
Zn1079     O1087   2.012       .  S
Zn1079     O1090   1.971       .  S
Zn1079     O1091   1.951       .  S
O1081      C1093   1.267       .  A
O1082      C1094   1.283       .  A
O1083      C1095   1.275       .  A
O1084      C1093   1.278       .  A
O1085      C1095   1.270       .  A
O1086      C1094   1.279       .  A
O1087      C1096   1.268       .  A
O1088      C1097   1.281       .  A
O1089      C1096   1.278       .  A
O1090      C1097   1.268       .  A
O1091      C1098   1.265       .  A
O1092      C1098   1.268       .  A
C1093      C1304   1.467       .  S
C1096      C1108   1.478       .  S
C1097      C1101   1.476       .  S
C1099      C1100   1.407       .  A
C1099      C1104   1.420       .  A
C1099      C1303   1.478       .  S
C1100      C1101   1.397       .  A
C1100      H1105   1.084       .  S
C1101      C1102   1.404       .  A
C1102      C1103   1.406       .  A
C1102      H1106   1.084       .  S
C1103      C1104   1.414       .  A
C1104      H1107   1.083       .  S
C1108      C1109   1.397       .  A
C1108      C1113   1.422   1_655  A
C1109      C1110   1.386       .  A
C1109      H1114   1.086       .  S
C1110      C1111   1.386   1_655  A
C1111      C1112   1.404       .  A
C1111      H1115   1.086       .  S
C1112      C1113   1.418       .  A
C1112      C1137   1.476       .  S
C1113      H1116   1.083       .  S
Zn1117     O1121   1.928       .  S
Zn1117     O1122   2.021       .  S
Zn1117     O1126   1.998       .  S
Zn1117     O1133   2.015       .  S
Zn1118     O1121   1.938       .  S
Zn1118     O1125   1.939       .  S
Zn1118     O1129   1.986       .  S
Zn1119     O1121   1.967       .  S
Zn1119     O1124   2.024       .  S
Zn1119     O1127   2.007       .  S
Zn1120     O1128   2.081       .  S
Zn1120     O1131   2.075       .  S
O1122      C1134   1.273       .  A
O1123      C1135   1.267       .  A
O1124      C1136   1.270       .  A
O1125      C1134   1.263       .  A
O1126      C1136   1.273       .  A
O1128      C1137   1.282       .  A
O1130      C1137   1.275       .  A
O1131      C1138   1.285       .  A
O1132      C1139   1.284       .  A
O1133      C1139   1.277       .  A
C1134      C1144   1.464       .  S
C1138      C1263   1.489       .  S
C1140      C1145   1.401       .  A
C1140      C1260   1.480       .  S
C1141      C1142   1.409       .  A
C1141      H1146   1.084       .  S
C1142      C1143   1.394       .  A
C1143      H1147   1.085       .  S
C1144      C1145   1.392       .  A
C1145      H1148   1.085       .  S
C1149      C1150   1.394       .  A
C1149      C1154   1.421       .  A
C1149      C1219   1.474       .  S
C1150      C1151   1.382       .  A
C1150      H1155   1.086       .  S
C1151      C1152   1.379       .  A
C1151      C1258   1.448       .  S
C1152      C1153   1.405       .  A
C1152      H1156   1.086       .  S
C1153      C1154   1.420       .  A
C1153      C1177   1.474       .  S
C1154      H1157   1.083       .  S
Zn1158     O1162   1.934       .  S
Zn1158     O1163   2.004       .  S
Zn1158     O1167   1.977       .  S
Zn1159     O1162   1.970       .  S
Zn1159     O1164   2.067       .  S
Zn1159     O1166   2.067       .  S
Zn1159     O1170   2.069       .  S
Zn1160     O1162   1.952       .  S
Zn1160     O1165   2.065       .  S
Zn1160     O1168   2.041       .  S
Zn1160     O1171   2.057       .  S
Zn1161     O1162   1.948       .  S
Zn1161     O1169   1.990       .  S
Zn1161     O1172   1.950       .  S
O1163      C1175   1.269       .  A
O1164      C1176   1.282       .  A
O1165      C1177   1.278       .  A
O1166      C1175   1.279       .  A
O1167      C1177   1.272       .  A
O1168      C1176   1.280       .  A
O1169      C1178   1.266       .  A
O1170      C1179   1.280       .  A
O1171      C1178   1.280       .  A
O1172      C1179   1.266       .  A
O1173      C1180   1.261   1_554  A
O1174      C1180   1.271       .  A
C1176      C1308   1.482       .  S
C1178      C1190   1.476       .  S
C1180      C1235   1.453       .  S
C1181      C1182   1.425       .  A
C1182      C1183   1.413       .  A
C1183      C1184   1.399       .  A
C1183      C1298   1.490       .  S
C1184      C1185   1.404   1_556  A
C1184      H1188   1.085       .  S
C1186      H1189   1.084       .  S
C1190      C1191   1.394       .  A
C1190      C1195   1.424       .  A
C1191      C1192   1.388       .  A
C1191      H1196   1.086       .  S
C1192      C1193   1.386       .  A
C1192      C1301   1.454       .  S
C1193      C1194   1.406       .  A
C1193      H1197   1.086       .  S
C1194      C1195   1.418       .  A
C1194      C1217   1.481       .  S
C1195      H1198   1.082       .  S
Zn1199     O1203   1.932       .  S
Zn1199     O1204   1.972       .  S
Zn1199     O1208   1.947       .  S
Zn1199     O1215   1.955       .  S
Zn1200     O1203   1.971       .  S
Zn1200     O1211   2.110       .  S
Zn1201     O1203   1.969       .  S
Zn1201     O1206   1.998       .  S
Zn1201     O1209   1.978       .  S
Zn1201     O1212   2.024       .  S
Zn1202     O1203   1.926       .  S
Zn1202     O1210   2.001       .  S
Zn1202     O1213   2.014       .  S
Zn1202     O1214   2.030       .  S
O1205      C1217   1.284       .  A
O1206      C1218   1.269       .  A
O1207      C1216   1.284       .  A
O1208      C1218   1.265       .  A
O1210      C1219   1.275       .  A
O1211      C1220   1.285       .  A
O1212      C1219   1.268       .  A
O1213      C1220   1.279       .  A
O1214      C1221   1.273       .  A
O1215      C1221   1.266       .  A
C1218      C1274   1.450       .  S
C1220      C1267   1.499       .  S
C1221      C1224   1.472       .  S
C1222      C1223   1.399       .  A
C1222      C1227   1.420       .  A
C1223      C1224   1.393       .  A
C1223      H1228   1.084       .  S
C1224      C1225   1.401       .  A
C1225      C1226   1.403       .  A
C1225      H1229   1.085       .  S
C1226      C1227   1.413       .  A
C1226      C1262   1.492       .  S
C1227      H1230   1.083       .  S
C1231      C1232   1.423       .  A
C1231      C1236   1.395       .  A
C1231      C1299   1.478       .  S
C1232      C1233   1.417       .  A
C1232      H1237   1.083       .  S
C1233      C1234   1.403       .  A
C1233      C1261   1.475       .  S
C1234      C1235   1.384       .  A
C1234      H1238   1.086       .  S
C1235      C1236   1.390       .  A
C1236      H1239   1.086       .  S
Zn1240     O1244   1.923       .  S
Zn1240     O1245   1.995       .  S
Zn1240     O1249   2.031       .  S
Zn1240     O1256   2.009       .  S
Zn1241     O1244   1.968       .  S
Zn1241     O1246   2.001       .  S
Zn1241     O1248   2.023       .  S
Zn1241     O1252   1.988       .  S
Zn1242     O1244   1.924       .  S
Zn1242     O1247   1.949       .  S
Zn1242     O1253   1.964       .  S
Zn1243     O1244   1.965       .  S
Zn1243     O1251   2.059       .  S
Zn1243     O1254   2.074       .  S
Zn1243     O1255   2.086       .  S
O1245      C1257   1.274       .  A
O1247      C1259   1.264       .  A
O1248      C1257   1.269       .  A
O1249      C1259   1.273       .  A
O1250      C1258   1.263       .  A
O1251      C1260   1.282       .  A
O1252      C1261   1.274       .  A
O1253      C1260   1.265       .  A
O1254      C1261   1.281       .  A
O1255      C1262   1.282       .  A
O1256      C1262   1.278       .  A
C1257      C1272   1.472       .  S
C1259      C1265   1.471       .  S
C1263      C1264   1.404       .  A
C1264      C1265   1.392       .  A
C1264      H1269   1.083       .  S
C1266      C1267   1.400       .  A
C1266      H1270   1.085       .  S
C1267      C1268   1.416       .  A
C1268      H1271   1.083       .  S
C1272      C1273   1.395       .  A
C1272      C1277   1.420       .  A
C1273      C1274   1.382       .  A
C1273      H1278   1.086       .  S
C1274      C1275   1.381       .  A
C1275      C1276   1.407       .  A
C1275      H1279   1.085       .  S
C1276      C1277   1.418       .  A
C1276      C1302   1.475       .  S
C1277      H1280   1.083       .  S
Zn1281     O1285   1.975       .  S
Zn1281     O1286   2.074       .  S
Zn1281     O1290   2.071       .  S
Zn1281     O1297   2.070       .  S
Zn1282     O1285   1.956       .  S
Zn1282     O1287   2.056       .  S
Zn1282     O1289   2.055       .  S
Zn1283     O1285   1.952       .  S
Zn1283     O1288   1.947       .  S
Zn1283     O1291   1.991       .  S
Zn1283     O1294   1.942       .  S
Zn1284     O1285   1.944       .  S
Zn1284     O1292   2.019       .  S
O1286      C1298   1.283       .  A
O1287      C1299   1.279       .  A
O1288      C1300   1.266       .  A
O1289      C1298   1.282       .  A
O1290      C1300   1.280       .  A
O1291      C1299   1.265       .  A
O1292      C1301   1.271       .  A
O1293      C1302   1.279       .  A
O1294      C1301   1.262       .  A
O1295      C1302   1.272       .  A
O1296      C1303   1.270       .  A
C1300      C1306   1.466       .  S
C1304      C1305   1.402       .  A
C1304      C1309   1.416       .  A
C1305      C1306   1.394       .  A
C1305      H1310   1.084       .  S
C1306      C1307   1.404       .  A
C1307      C1308   1.400       .  A
C1307      H1311   1.085       .  S
C1308      C1309   1.410       .  A
C1309      H1312   1.084       .  S
