geometry optimzed in LAMMPS
_audit_creation_date              2020-11-30 
_audit_creation_method            'lammps2cif' 
_symmetry_space_group_name_H-M    'P1' 
_symmetry_Int_Tables_number       1 
_symmetry_cell_setting            triclinic 
loop_ 
_symmetry_equiv_pos_as_xyz 
  x,y,z 
_cell_length_a                    48.52720727 
_cell_length_b                    48.31876361380428 
_cell_length_c                    48.67737927270639 
_cell_angle_alpha                 89.94908063378877 
_cell_angle_beta                  90.39102613981211 
_cell_angle_gamma                 89.80953184179218 
loop_ 
_atom_site_label 
_atom_site_type_symbol 
_atom_site_fract_x 
_atom_site_fract_y 
_atom_site_fract_z 
_atom_site_charge 
O1          O  0.03059374  0.47315266  0.27948643    -0.80400
O2          O  0.97378430  0.52873529  0.28567283    -0.80400
O3          O  0.05704657  0.52869278  0.24530460    -0.80400
O4          O  0.93947147  0.47658569  0.25478948    -0.80400
O5          O  0.03025431  0.52929748  0.28132726    -0.80500
O6          O  0.97181506  0.47225263  0.28629784    -0.80400
O7          O  0.94020259  0.52978647  0.25547168    -0.80400
O8          O  0.05732287  0.47512051  0.24341820    -0.80400
C9          C  0.05372991  0.46844534  0.26846704     1.09300
C10         C  0.94904229  0.53367447  0.27982759     1.09200
C11         C  0.05389452  0.53208862  0.27088693     1.09300
C12         C  0.94643881  0.47067363  0.27941272     1.09200
O13         O  0.96986221  0.44540622  0.23396968    -0.80400
O14         O  0.02332875  0.56138101  0.23187214    -0.80500
O15         O  0.02352374  0.47544454  0.19368527    -0.80400
O16         O  0.96467885  0.53198384  0.20021780    -0.80400
O17         O  0.97050592  0.56109691  0.23420726    -0.80400
O18         O  0.02255288  0.44479432  0.22715560    -0.80400
O19         O  0.96489023  0.47457967  0.19999432    -0.80300
O20         O  0.02315330  0.53420546  0.19608058    -0.80400
Co21       Co  0.99884959  0.46268670  0.25662987     1.51500
Co22       Co  0.99927751  0.54159564  0.25805391     1.51700
Co23       Co  0.03630666  0.50338123  0.22011565     1.51600
Co24       Co  0.95602906  0.50320500  0.22738113     1.51500
O25         O  0.99763292  0.50265007  0.24014511    -1.42300
C26         C  0.96468658  0.45006481  0.20894929     1.09200
C27         C  0.02558500  0.55828450  0.20628974     1.09300
C28         C  0.02745055  0.45096911  0.20212799     1.09300
C29         C  0.96376369  0.55642402  0.20923465     1.09200
O30         O  0.53840188  0.03181234  0.29745245    -0.80400
O31         O  0.43441482  0.99374030  0.28315898    -0.80400
O32         O  0.47928127  0.06721985  0.27119301    -0.80400
O33         O  0.51762030  0.94823863  0.25726395    -0.80400
O34         O  0.47443410  0.03127881  0.29885807    -0.80500
O35         O  0.52922719  0.97462449  0.29172570    -0.80400
O36         O  0.46932938  0.96497082  0.27521238    -0.80400
O37         O  0.53405049  0.06511661  0.26665769    -0.80400
C38         C  0.53920371  0.05724109  0.29099519     1.09300
C39         C  0.44594812  0.97035549  0.28701282     1.09200
C40         C  0.47296799  0.05722179  0.29470967     1.09300
C41         C  0.52808445  0.95080754  0.28091294     1.09200
O42         O  0.55451459  0.97760205  0.23762215    -0.80400
O43         O  0.44482138  0.03770966  0.24735017    -0.80500
O44         O  0.53123358  0.04117074  0.21324312    -0.80400
O45         O  0.47328201  0.94751352  0.22271113    -0.80400
O46         O  0.45188818  0.98744688  0.23117862    -0.80400
O47         O  0.56360566  0.03130386  0.24364859    -0.80400
O48         O  0.51935557  0.97845905  0.20827232    -0.80300
O49         O  0.47505161  0.04453566  0.21504248    -0.80400
Co50       Co  0.54393923  0.00418423  0.26786343     1.51500
Co51       Co  0.46673800  0.00764596  0.26632071     1.51700
Co52       Co  0.50476534  0.05215784  0.24138049     1.51600
Co53       Co  0.49299616  0.97604870  0.24011458     1.51500
O54         O  0.50542617  0.01258625  0.25392318    -1.42300
C55         C  0.54491066  0.97370714  0.21342623     1.09200
C56         C  0.45082384  0.04686939  0.22368035     1.09300
C57         C  0.55645137  0.03972042  0.21985227     1.09300
C58         C  0.45229230  0.96315808  0.22019896     1.09200
O59         O  0.20553373  0.02861037  0.47297768    -0.80400
O60         O  0.22137272  0.92890733  0.51834891    -0.80400
O61         O  0.23658562  0.96871206  0.44346298    -0.80400
O62         O  0.24178386  0.01427337  0.56061133    -0.80400
O63         O  0.20712197  0.96547229  0.47764743    -0.80500
O64         O  0.20742423  0.02346072  0.53229812    -0.80400
O65         O  0.23051419  0.96489874  0.54574272    -0.80400
O66         O  0.23896169  0.02345246  0.44277981    -0.80400
C67         C  0.21430523  0.03016547  0.44847041     1.09300
C68         C  0.21839699  0.94161419  0.54101382     1.09200
C69         C  0.21272248  0.96222115  0.45229747     1.09300
C70         C  0.21700234  0.02270045  0.55683842     1.09200
O71         O  0.25990885  0.05009386  0.53022164    -0.80400
O72         O  0.25854131  0.93657726  0.47641394    -0.80500
O73         O  0.29175819  0.02517815  0.46792521    -0.80400
O74         O  0.28303416  0.97158026  0.56372716    -0.80400
O75         O  0.27383391  0.94731375  0.52599081    -0.80400
O76         O  0.25838660  0.05564487  0.47603618    -0.80400
O77         O  0.29316677  0.01897982  0.53062629    -0.80300
O78         O  0.29187656  0.96554984  0.46798541    -0.80400
Co79       Co  0.23285850  0.03666361  0.50250236     1.51500
Co80       Co  0.23858549  0.96030267  0.50353474     1.51700
Co81       Co  0.26491437  0.99580353  0.45833460     1.51600
Co82       Co  0.26368682  0.99010223  0.53451875     1.51500
O83         O  0.25007402  0.99874711  0.49707229    -1.42300
C84         C  0.28522158  0.04414330  0.53296968     1.09200
C85         C  0.28273178  0.94087458  0.46767045     1.09300
C86         C  0.28257380  0.04990583  0.46734685     1.09300
C87         C  0.28604832  0.94949498  0.54960788     1.09200
O88         O  0.01746498  0.28925243  0.53841956    -0.80400
O89         O  0.97898818  0.29294824  0.46963390    -0.80400
O90         O  0.06923456  0.26497785  0.48139548    -0.80400
O91         O  0.95711005  0.26745029  0.52567795    -0.80400
O92         O  0.03707864  0.29587192  0.47301802    -0.80500
O93         O  0.97414360  0.26444276  0.56744076    -0.80400
O94         O  0.95022689  0.25838261  0.47492854    -0.80400
O95         O  0.05673286  0.26546664  0.53542742    -0.80400
C96         C  0.04346379  0.28751544  0.54151538     1.09300
C97         C  0.95480671  0.28309823  0.46731399     1.09200
C98         C  0.06235842  0.28939814  0.47403589     1.09300
C99         C  0.95397822  0.27043221  0.55170104     1.09200
O100        O  0.97690740  0.21597834  0.53987203    -0.80400
O101        O  0.04010113  0.24253359  0.44421616    -0.80500
O102        O  0.03890834  0.20698878  0.53242017    -0.80400
O103        O  0.97800473  0.20731880  0.47167128    -0.80400
O104        O  0.98496495  0.24085380  0.44174691    -0.80400
O105        O  0.02345379  0.23596632  0.56265570    -0.80400
O106        O  0.93950029  0.21638623  0.51371288    -0.80300
O107        O  0.04663947  0.21014571  0.47593207    -0.80400
Co108      Co  0.99658624  0.25431977  0.53655331     1.51500
Co109      Co  0.01039403  0.26760720  0.46013059     1.51700
Co110      Co  0.05011117  0.23693735  0.50593436     1.51600
Co111      Co  0.97184505  0.23534835  0.50116056     1.51500
O112        O  0.01067113  0.24915625  0.49802441    -1.42300
C113        C  0.95169201  0.20842325  0.53564387     1.09200
C114        C  0.04757029  0.21804016  0.45112540     1.09300
C115        C  0.03512741  0.21303948  0.55744405     1.09300
C116        C  0.97580974  0.21689923  0.44723685     1.09200
O117        O  0.44121078  0.28400697  0.02180999    -0.80400
O118        O  0.53761690  0.29516357  0.97102811    -0.80400
O119        O  0.52879575  0.26120853  0.05927388    -0.80400
O120        O  0.47611969  0.26065922  0.94289622    -0.80400
O121        O  0.53632898  0.29394402  0.02919120    -0.80500
O122        O  0.47351040  0.29343375  0.97426972    -0.80400
O123        O  0.53132296  0.26219871  0.94004392    -0.80400
O124        O  0.47846436  0.27536058  0.04724207    -0.80400
C125        C  0.45479607  0.28746835  0.04424126     1.09300
C126        C  0.53632903  0.28741635  0.94605392     1.09200
C127        C  0.53743117  0.28557897  0.05387085     1.09300
C128        C  0.46979444  0.28546155  0.94948795     1.09200
O129        O  0.44628865  0.23890833  0.97922861    -0.80400
O130        O  0.56188779  0.23874810  0.02701735    -0.80500
O131        O  0.48371635  0.22295120  0.06635694    -0.80400
O132        O  0.53686181  0.20870003  0.96705644    -0.80400
O133        O  0.56586362  0.24305069  0.97233836    -0.80400
O134        O  0.45789373  0.23127426  0.02938699    -0.80400
O135        O  0.47795594  0.20730069  0.97004352    -0.80300
O136        O  0.52805479  0.20840046  0.03190154    -0.80400
Co137      Co  0.47036607  0.26396081  0.00359057     1.51500
Co138      Co  0.54753779  0.26756609  0.99984922     1.51700
Co139      Co  0.50147364  0.24007083  0.03550836     1.51600
Co140      Co  0.50583547  0.23485200  0.95791857     1.51500
O141        O  0.50897841  0.25128656  0.99651148    -1.42300
C142        C  0.45268362  0.21444046  0.97082582     1.09200
C143        C  0.55371894  0.21427782  0.03320266     1.09300
C144        C  0.46070995  0.22065402  0.05365094     1.09300
C145        C  0.56152230  0.21771889  0.96722567     1.09200
O146        O  0.29318233  0.53837806  0.01810024    -0.80400
O147        O  0.29293319  0.47156319  0.96663507    -0.80400
O148        O  0.26516709  0.47653785  0.05576202    -0.80400
O149        O  0.27278575  0.52983569  0.94916609    -0.80400
O150        O  0.29515193  0.47111208  0.02224426    -0.80500
O151        O  0.27744630  0.56956393  0.97167996    -0.80400
O152        O  0.25957519  0.47900826  0.93762845    -0.80400
O153        O  0.26400093  0.53165737  0.05198161    -0.80400
C154        C  0.28691161  0.54099305  0.04349817     1.09300
C155        C  0.28444025  0.47188196  0.94211325     1.09200
C156        C  0.28928994  0.47044056  0.04733413     1.09300
C157        C  0.28252487  0.55460691  0.95064258     1.09200
O158        O  0.22565613  0.54713576  0.96778790    -0.80400
O159        O  0.24278872  0.44242632  0.02465149    -0.80500
O160        O  0.20998943  0.53036488  0.02679213    -0.80400
O161        O  0.20841747  0.48035332  0.96794701    -0.80400
O162        O  0.23792726  0.44558218  0.96979865    -0.80400
O163        O  0.23983479  0.56284159  0.01786232    -0.80400
O164        O  0.22115553  0.52019254  0.93108128    -0.80300
O165        O  0.21014429  0.47319415  0.03143718    -0.80400
Co166      Co  0.26145737  0.53886964  0.99123120     1.51500
Co167      Co  0.26704311  0.46027184  0.99598092     1.51700
Co168      Co  0.23737731  0.50266730  0.03889617     1.51600
Co169      Co  0.23937981  0.50604361  0.96206201     1.51500
O170        O  0.25214023  0.49932693  0.00022458    -1.42300
C171        C  0.21389120  0.54144876  0.94452832     1.09200
C172        C  0.21831624  0.44836777  0.03214992     1.09300
C173        C  0.21706772  0.55549194  0.02856194     1.09300
C174        C  0.21381562  0.45490707  0.96448927     1.09200
O175        O  0.51928875  0.05998049  0.73883075    -0.80400
O176        O  0.48136840  0.94154012  0.74863277    -0.80400
O177        O  0.56396462  0.98612419  0.72556990    -0.80400
O178        O  0.45908212  0.02811058  0.71411832    -0.80400
O179        O  0.52974315  0.95731469  0.73541652    -0.80500
O180        O  0.46481607  0.06035257  0.74542891    -0.80400
O181        O  0.46785590  0.97037656  0.71625506    -0.80400
O182        O  0.52385770  0.02406872  0.71101633    -0.80400
C183        C  0.52550639  0.05000858  0.71531340     1.09300
C184        C  0.47153833  0.94566665  0.72453404     1.09200
C185        C  0.55287532  0.96243188  0.72352288     1.09300
C186        C  0.45716097  0.05322296  0.72141207     1.09200
O187        O  0.46980759  0.03416520  0.79890477    -0.80400
O188        O  0.52592638  0.94068321  0.78777083    -0.80500
O189        O  0.55490366  0.03038895  0.76051575    -0.80400
O190        O  0.44452760  0.97033393  0.77050493    -0.80400
O191        O  0.47902269  0.97059848  0.80039827    -0.80400
O192        O  0.52621015  0.03601123  0.79411479    -0.80400
O193        O  0.43630388  0.02569472  0.76930192    -0.80300
O194        O  0.54746441  0.98014408  0.77858023    -0.80400
Co195      Co  0.49512738  0.04515267  0.76943706     1.51500
Co196      Co  0.50551922  0.96866140  0.76926843     1.51700
Co197      Co  0.53212380  0.00034643  0.74314710     1.51600
Co198      Co  0.45450876  0.99894941  0.74253191     1.51500
O199        O  0.49357778  0.00580797  0.75584521    -1.42300
C200        C  0.44459899  0.03509115  0.79251397     1.09200
C201        C  0.54687717  0.95636106  0.79072462     1.09300
C202        C  0.55008622  0.03914166  0.78454648     1.09300
C203        C  0.45400037  0.96523985  0.79441035     1.09200
O204        O  0.73938881  0.52362322  0.05817996    -0.80400
O205        O  0.74215996  0.47486858  0.93668299    -0.80400
O206        O  0.70649155  0.53033729  0.96995032    -0.80400
O207        O  0.70272422  0.47058728  0.02101138    -0.80400
O208        O  0.74120304  0.52811980  0.94105433    -0.80500
O209        O  0.73443571  0.47063512  0.05351203    -0.80400
O210        O  0.70685840  0.47285923  0.96409031    -0.80400
O211        O  0.70570390  0.52951237  0.02877477    -0.80400
C212        C  0.71467769  0.53095329  0.05341314     1.09300
C213        C  0.71660624  0.47040001  0.94019048     1.09200
C214        C  0.71598762  0.53324990  0.94597817     1.09300
C215        C  0.70963567  0.46661132  0.04574016     1.09200
O216        O  0.78883578  0.46564686  0.02747945    -0.80400
O217        O  0.79369311  0.52955536  0.97101437    -0.80500
O218        O  0.75936282  0.55515315  0.02679204    -0.80400
O219        O  0.75865800  0.44205815  0.96918817    -0.80400
O220        O  0.79330093  0.47107501  0.96914852    -0.80400
O221        O  0.79207164  0.52387809  0.03018620    -0.80400
O222        O  0.75358005  0.43817665  0.02241171    -0.80300
O223        O  0.75978994  0.55928220  0.97376265    -0.80400
Co224      Co  0.76365690  0.49606501  0.03839598     1.51500
Co225      Co  0.76718662  0.50071217  0.95847752     1.51700
Co226      Co  0.73293195  0.53959907  0.99950135     1.51600
Co227      Co  0.73087773  0.45970936  0.99435663     1.51500
O228        O  0.74878664  0.49908632  0.99775455    -1.42300
C229        C  0.77845940  0.44179191  0.02990400     1.09200
C230        C  0.78509953  0.55423625  0.96852229     1.09300
C231        C  0.78394473  0.54867394  0.03285022     1.09300
C232        C  0.78420943  0.44675959  0.96589283     1.09200
O233        O  0.06466056  0.73244187  0.52698644    -0.80400
O234        O  0.94760420  0.73009314  0.48068834    -0.80400
O235        O  0.98985220  0.71376183  0.56738681    -0.80400
O236        O  0.03785702  0.70207906  0.46541364    -0.80400
O237        O  0.96281277  0.71886649  0.53071641    -0.80500
O238        O  0.06683132  0.73653850  0.47214801    -0.80400
O239        O  0.97870031  0.69911384  0.46908549    -0.80400
O240        O  0.03189680  0.70104278  0.53119048    -0.80400
C241        C  0.05738855  0.70762388  0.53223171     1.09300
C242        C  0.95340513  0.70622607  0.47087057     1.09200
C243        C  0.96803791  0.70746437  0.55428165     1.09300
C244        C  0.06224252  0.71162626  0.46446463     1.09200
O245        O  0.03767425  0.78902024  0.47308457    -0.80400
O246        O  0.94041973  0.77031499  0.52358157    -0.80500
O247        O  0.03065465  0.75220245  0.56037865    -0.80400
O248        O  0.97624495  0.75390077  0.44499123    -0.80400
O249        O  0.97208756  0.78435517  0.47829414    -0.80400
O250        O  0.03747610  0.78639454  0.53202271    -0.80400
O251        O  0.03131967  0.75678966  0.44129687    -0.80300
O252        O  0.97905220  0.76594145  0.54791547    -0.80400
Co253      Co  0.04870028  0.76085111  0.50090976     1.51500
Co254      Co  0.97144099  0.75349261  0.50593620     1.51700
Co255      Co  0.00419785  0.73166274  0.53602985     1.51600
Co256      Co  0.00643833  0.72809666  0.45825557     1.51500
O257        O  0.01042945  0.74352013  0.49728619    -1.42300
C258        C  0.03629667  0.78191429  0.44795781     1.09200
C259        C  0.95472556  0.77697976  0.54463356     1.09300
C260        C  0.03717225  0.77729058  0.55667706     1.09300
C261        C  0.96809323  0.77757432  0.45321057     1.09200
O262        O  0.03451993  0.53182602  0.79350799    -0.80400
O263        O  0.93477670  0.48032079  0.77766088    -0.80400
O264        O  0.97318557  0.55525399  0.76380813    -0.80400
O265        O  0.02347076  0.44059690  0.76322454    -0.80400
O266        O  0.97075695  0.52030179  0.79307399    -0.80500
O267        O  0.03341560  0.47144192  0.79505296    -0.80400
O268        O  0.97224659  0.45368157  0.77576273    -0.80400
O269        O  0.02763911  0.56066390  0.75924009    -0.80400
C270        C  0.03357522  0.55652158  0.78431602     1.09300
C271        C  0.94786484  0.45902652  0.78544725     1.09200
C272        C  0.96703206  0.54577102  0.78756220     1.09300
C273        C  0.03223252  0.44607647  0.78729410     1.09200
O274        O  0.05795826  0.47224965  0.74218576    -0.80400
O275        O  0.94273789  0.52124079  0.74185611    -0.80500
O276        O  0.02838652  0.53277498  0.70759161    -0.80400
O277        O  0.98004196  0.43154817  0.72450620    -0.80400
O278        O  0.95507839  0.46978891  0.72752212    -0.80400
O279        O  0.06100804  0.52762872  0.73926007    -0.80400
O280        O  0.02563200  0.46593821  0.71069103    -0.80300
O281        O  0.97135242  0.52902763  0.70879729    -0.80400
Co282      Co  0.04389107  0.50104809  0.76743489     1.51500
Co283      Co  0.96672994  0.49437458  0.76179219     1.51700
Co284      Co  0.00025290  0.54155437  0.73505216     1.51600
Co285      Co  0.99720639  0.46356741  0.74092571     1.51500
O286        O  0.00526154  0.50285442  0.75102132    -1.42300
C287        C  0.05112846  0.46530400  0.71799367     1.09200
C288        C  0.94699937  0.52954227  0.71766886     1.09300
C289        C  0.05336941  0.53486214  0.71492571     1.09300
C290        C  0.95777403  0.44455437  0.71879686     1.09200
O291        O  0.52736048  0.71770059  0.02922115    -0.80400
O292        O  0.46995413  0.71322229  0.97938104    -0.80400
O293        O  0.47104932  0.73691815  0.04663971    -0.80400
O294        O  0.52744946  0.74504242  0.94006505    -0.80400
O295        O  0.43397137  0.72650620  0.02205730    -0.80500
O296        O  0.53384644  0.71357000  0.97218479    -0.80400
O297        O  0.47293477  0.74231843  0.94425535    -0.80400
O298        O  0.52027048  0.75075369  0.05901564    -0.80400
C299        C  0.52914795  0.72639391  0.05367849     1.09300
C300        C  0.46760455  0.71836034  0.95376149     1.09200
C301        C  0.44820688  0.72362366  0.04405125     1.09300
C302        C  0.53605055  0.72115408  0.94734727     1.09200
O303        O  0.55976459  0.76710819  0.97292080    -0.80400
O304        O  0.45026874  0.78058623  0.02600820    -0.80500
O305        O  0.51931116  0.80236707  0.02841622    -0.80400
O306        O  0.47032302  0.79734602  0.96750136    -0.80400
O307        O  0.44042052  0.76451944  0.97638320    -0.80400
O308        O  0.55339450  0.77168419  0.02681042    -0.80400
O309        O  0.52867141  0.79932569  0.96378628    -0.80300
O310        O  0.47491345  0.79037459  0.06307932    -0.80400
Co311      Co  0.54099038  0.74246886  0.00030083     1.51500
Co312      Co  0.46422911  0.74515710  0.00440586     1.51700
Co313      Co  0.49346402  0.77123071  0.03366224     1.51600
Co314      Co  0.49975024  0.77120565  0.95656597     1.51500
O315        O  0.50252957  0.75775841  0.99582909    -1.42300
C316        C  0.55357363  0.79099226  0.96361022     1.09200
C317        C  0.45276794  0.79370811  0.04906812     1.09300
C318        C  0.54474511  0.79627166  0.03094851     1.09300
C319        C  0.44578036  0.78839809  0.96663773     1.09200
O320        O  0.79242573  0.30718593  0.63742652    -0.80400
O321        O  0.76045600  0.37039508  0.67476818    -0.80400
O322        O  0.84914679  0.34140674  0.67585693    -0.80400
O323        O  0.74144149  0.35679950  0.60717100    -0.80400
O324        O  0.80712851  0.34521973  0.68972668    -0.80500
O325        O  0.76747608  0.32307282  0.59082611    -0.80400
O326        O  0.74527450  0.39915779  0.64353043    -0.80400
O327        O  0.83553546  0.30963946  0.64787448    -0.80400
C328        C  0.81309324  0.29665264  0.64891836     1.09300
C329        C  0.74099399  0.38435964  0.66457175     1.09200
C330        C  0.83171405  0.33849080  0.69484441     1.09300
C331        C  0.74379542  0.33274662  0.59711890     1.09200
O332        O  0.81606587  0.35448737  0.57548100    -0.80400
O333        O  0.84044588  0.39424172  0.67358043    -0.80500
O334        O  0.85670476  0.33230639  0.60500418    -0.80400
O335        O  0.79190194  0.42051361  0.61409618    -0.80400
O336        O  0.79127534  0.41995579  0.65953459    -0.80400
O337        O  0.82513073  0.30223977  0.59063281    -0.80400
O338        O  0.78087996  0.38243803  0.57146930    -0.80300
O339        O  0.86560870  0.37773848  0.63982438    -0.80400
Co340      Co  0.80426331  0.33226310  0.60811151     1.51500
Co341      Co  0.79948864  0.38100040  0.67128995     1.51700
Co342      Co  0.83736436  0.34929978  0.63678597     1.51600
Co343      Co  0.76794892  0.38804592  0.61045159     1.51500
O344        O  0.79782639  0.36508855  0.63174661    -1.42300
C345        C  0.80058172  0.36932947  0.56057594     1.09200
C346        C  0.86375675  0.39262576  0.66094928     1.09300
C347        C  0.85044198  0.30967342  0.59290298     1.09300
C348        C  0.79397108  0.43291689  0.63696708     1.09200
O349        O  0.58576889  0.32733872  0.83391322    -0.80400
O350        O  0.65072064  0.42766020  0.78655612    -0.80400
O351        O  0.63132157  0.40741903  0.85339695    -0.80400
O352        O  0.56924688  0.38627956  0.79689068    -0.80400
O353        O  0.67134448  0.40849357  0.83332237    -0.80500
O354        O  0.56961570  0.34317318  0.78484005    -0.80400
O355        O  0.60714248  0.42672087  0.79735667    -0.80400
O356        O  0.58923904  0.36831597  0.85261595    -0.80400
C357        C  0.57805413  0.34478198  0.85193657     1.09300
C358        C  0.62885476  0.44037368  0.79387882     1.09200
C359        C  0.65541102  0.41715004  0.85203639     1.09300
C360        C  0.55625435  0.36435322  0.79247338     1.09200
O361        O  0.62544260  0.33274929  0.76345892    -0.80400
O362        O  0.68118461  0.35399685  0.80914566    -0.80500
O363        O  0.63097822  0.32444992  0.85364856    -0.80400
O364        O  0.63244060  0.40297066  0.74677425    -0.80400
O365        O  0.66193243  0.37257892  0.76118980    -0.80400
O366        O  0.64141643  0.31555039  0.81168209    -0.80400
O367        O  0.59530245  0.36110213  0.74648269    -0.80300
O368        O  0.67113497  0.36207399  0.85207835    -0.80400
Co369      Co  0.60758737  0.33234445  0.79856153     1.51500
Co370      Co  0.66347809  0.38865703  0.79762834     1.51700
Co371      Co  0.62954242  0.36673318  0.84934501     1.51600
Co372      Co  0.60232219  0.39295774  0.77495286     1.51500
O373        O  0.62509876  0.37104329  0.80579319    -1.42300
C374        C  0.61067060  0.33969988  0.74357009     1.09200
C375        C  0.68770562  0.35290480  0.83410669     1.09300
C376        C  0.63964402  0.30737426  0.83587180     1.09300
C377        C  0.65317644  0.38755414  0.74206175     1.09200
O378        O  0.59807782  0.18111381  0.69853124    -0.80400
O379        O  0.66051488  0.23777411  0.62599630    -0.80400
O380        O  0.66582631  0.14649336  0.63797069    -0.80400
O381        O  0.59361149  0.24895366  0.64366015    -0.80400
O382        O  0.67889953  0.18899239  0.64347918    -0.80500
O383        O  0.62067792  0.22645265  0.67275556    -0.80400
O384        O  0.62879190  0.25477588  0.59935394    -0.80400
O385        O  0.63362664  0.16169694  0.67772013    -0.80400
C386        C  0.61999562  0.16690568  0.69979072     1.09300
C387        C  0.65271548  0.25662315  0.61025056     1.09200
C388        C  0.68382330  0.16361900  0.64616137     1.09300
C389        C  0.60853076  0.24865213  0.66532799     1.09200
O390        O  0.56748085  0.20575324  0.65953823    -0.80400
O391        O  0.66424387  0.16431529  0.58984096    -0.80500
O392        O  0.61712290  0.11903454  0.64653660    -0.80400
O393        O  0.60195189  0.20814634  0.57350038    -0.80400
O394        O  0.64701824  0.21478391  0.57157958    -0.80400
O395        O  0.58560456  0.15186764  0.65273240    -0.80400
O396        O  0.56433099  0.20391841  0.61508305    -0.80300
O397        O  0.62390254  0.14459353  0.59668413    -0.80400
Co398      Co  0.60565833  0.18995543  0.66151741     1.51500
Co399      Co  0.66080689  0.20140834  0.60907914     1.51700
Co400      Co  0.62545902  0.15572450  0.63581295     1.51600
Co401      Co  0.59818747  0.22661423  0.60882096     1.51500
O402        O  0.62291809  0.19581040  0.62490814    -1.42300
C403        C  0.55265753  0.20382030  0.63823772     1.09200
C404        C  0.64690515  0.14521363  0.58431903     1.09300
C405        C  0.59286370  0.12583123  0.65344015     1.09300
C406        C  0.62352793  0.21228918  0.55982176     1.09200
O407        O  0.87124178  0.19093885  0.67739003    -0.80400
O408        O  0.83288520  0.13224334  0.72770183    -0.80400
O409        O  0.81147020  0.13842940  0.66100984    -0.80400
O410        O  0.90350337  0.14105487  0.75192679    -0.80400
O411        O  0.79966864  0.10626573  0.69115189    -0.80500
O412        O  0.88341976  0.17403887  0.72833604    -0.80400
O413        O  0.85944589  0.10462083  0.75134045    -0.80400
O414        O  0.83313341  0.16832512  0.67758901    -0.80400
C415        C  0.84544143  0.19067852  0.67845984     1.09300
C416        C  0.83790431  0.11968823  0.74993268     1.09200
C417        C  0.79286507  0.12521817  0.67432030     1.09300
C418        C  0.89410111  0.16566086  0.75038656     1.09200
O419        O  0.93401875  0.15142426  0.70818885    -0.80400
O420        O  0.84077587  0.08430646  0.66073959    -0.80500
O421        O  0.87461605  0.16101768  0.63366435    -0.80400
O422        O  0.88834680  0.07162637  0.71003711    -0.80400
O423        O  0.84346786  0.07356664  0.71253830    -0.80400
O424        O  0.91448663  0.15729741  0.65487953    -0.80400
O425        O  0.93153211  0.10638853  0.71073060    -0.80300
O426        O  0.84774789  0.11424283  0.62924445    -0.80400
Co427      Co  0.89843072  0.16402168  0.69232632     1.51500
Co428      Co  0.83897256  0.11075517  0.69378862     1.51700
Co429      Co  0.85375522  0.13866000  0.66071895     1.51600
Co430      Co  0.89444750  0.10706301  0.72829335     1.51500
O431        O  0.87803729  0.12544522  0.69271713    -1.42300
C432        C  0.94569598  0.12813887  0.70877701     1.09200
C433        C  0.84024164  0.09042535  0.63538686     1.09300
C434        C  0.90073886  0.16213033  0.63302949     1.09300
C435        C  0.86548973  0.05944336  0.70974314     1.09200
O436        O  0.67115377  0.17307853  0.91295412    -0.80400
O437        O  0.70817331  0.07840315  0.83953069    -0.80400
O438        O  0.62201679  0.12472766  0.85815812    -0.80400
O439        O  0.71267834  0.10997372  0.92647988    -0.80400
O440        O  0.65564412  0.09504676  0.84828746    -0.80500
O441        O  0.72118680  0.15489303  0.92816675    -0.80400
O442        O  0.70564751  0.07467735  0.88369693    -0.80400
O443        O  0.65006163  0.13303149  0.90745729    -0.80400
C444        C  0.65205982  0.15627561  0.91967576     1.09300
C445        C  0.70564998  0.06329154  0.86051272     1.09200
C446        C  0.62966445  0.10159384  0.84826979     1.09300
C447        C  0.71501400  0.13217745  0.94000036     1.09200
O448        O  0.74277155  0.16943136  0.87427054    -0.80400
O449        O  0.68225557  0.11017874  0.80264688    -0.80500
O450        O  0.64949125  0.17520310  0.86661626    -0.80400
O451        O  0.75084070  0.10376817  0.85355378    -0.80400
O452        O  0.72758879  0.13286342  0.82719451    -0.80400
O453        O  0.69192146  0.18802503  0.85890443    -0.80400
O454        O  0.75908453  0.13525623  0.89901390    -0.80300
O455        O  0.66169258  0.14393755  0.82549132    -0.80400
Co456      Co  0.70674782  0.16967461  0.89214109     1.51500
Co457      Co  0.69232405  0.11667391  0.83915599     1.51700
Co458      Co  0.65877551  0.13456944  0.86761497     1.51600
Co459      Co  0.72980362  0.10676501  0.89012646     1.51500
O460        O  0.69936645  0.13243609  0.87604332    -1.42300
C461        C  0.76301898  0.15717683  0.88524656     1.09200
C462        C  0.66651090  0.13111342  0.80279622     1.09300
C463        C  0.66644278  0.19326617  0.85831356     1.09300
C464        C  0.74971690  0.11976047  0.83241794     1.09200
O465        O  0.81150811  0.30967320  0.86429563    -0.80400
O466        O  0.91389712  0.27541599  0.82987250    -0.80400
O467        O  0.84650666  0.31096716  0.82645795    -0.80400
O468        O  0.87550813  0.23300413  0.89397480    -0.80400
O469        O  0.88761932  0.32144370  0.81229522    -0.80500
O470        O  0.83793097  0.25775739  0.88258260    -0.80400
O471        O  0.87552477  0.25884170  0.84490011    -0.80400
O472        O  0.81914522  0.35311193  0.85162297    -0.80400
C473        C  0.80240872  0.33383612  0.85667917     1.09300
C474        C  0.89525869  0.25724715  0.82830403     1.09200
C475        C  0.86297719  0.31462672  0.80689999     1.09300
C476        C  0.85001364  0.23422779  0.88735367     1.09200
O477        O  0.85459697  0.28931536  0.93174124    -0.80400
O478        O  0.91200577  0.35348952  0.85637767    -0.80500
O479        O  0.85797909  0.36147845  0.89031841    -0.80400
O480        O  0.92545298  0.26226828  0.87875448    -0.80400
O481        O  0.93557921  0.30627036  0.87613430    -0.80400
O482        O  0.83189394  0.33449946  0.91313031    -0.80400
O483        O  0.89645294  0.27857784  0.92189342    -0.80300
O484        O  0.87206900  0.36308143  0.83837982    -0.80400
Co485      Co  0.83941038  0.29862777  0.89481669     1.51500
Co486      Co  0.91017896  0.31401426  0.84598023     1.51700
Co487      Co  0.85217081  0.33462931  0.85984592     1.51600
Co488      Co  0.88436700  0.26999399  0.88359735     1.51500
O489        O  0.87925665  0.30919994  0.87487380    -1.42300
C490        C  0.87881661  0.28469912  0.93960465     1.09200
C491        C  0.89655585  0.37010518  0.84346827     1.09300
C492        C  0.84186052  0.35819647  0.90996127     1.09300
C493        C  0.94330062  0.28158652  0.87948175     1.09200
O494        O  0.30554795  0.18223905  0.61794251    -0.80400
O495        O  0.35726327  0.23341305  0.66172562    -0.80400
O496        O  0.35439989  0.15797342  0.67718450    -0.80400
O497        O  0.35751998  0.25563533  0.59174826    -0.80400
O498        O  0.37525327  0.19351844  0.69736408    -0.80500
O499        O  0.32316811  0.23251876  0.60918072    -0.80400
O500        O  0.38929838  0.25456859  0.63879542    -0.80400
O501        O  0.32351418  0.15430110  0.64860232    -0.80400
C502        C  0.30331350  0.16620389  0.63803436     1.09300
C503        C  0.37189970  0.25472941  0.65832985     1.09200
C504        C  0.36035645  0.17186837  0.69912696     1.09300
C505        C  0.33328514  0.25510578  0.60181431     1.09200
O506        O  0.35034858  0.21385064  0.55923356    -0.80400
O507        O  0.40453461  0.16472159  0.66219290    -0.80500
O508        O  0.34651382  0.13146019  0.60833100    -0.80400
O509        O  0.42375641  0.21156480  0.61502212    -0.80400
O510        O  0.41642882  0.21488353  0.65940744    -0.80400
O511        O  0.33965693  0.16054562  0.57410227    -0.80400
O512        O  0.39430022  0.21226652  0.56748602    -0.80300
O513        O  0.38945495  0.13182367  0.63680580    -0.80400
Co514      Co  0.33319730  0.19724716  0.59276880     1.51500
Co515      Co  0.37770987  0.19801160  0.65851043     1.51700
Co516      Co  0.36022841  0.15864269  0.63477995     1.51600
Co517      Co  0.39010340  0.23094067  0.60391946     1.51500
O518        O  0.36866521  0.19645853  0.61781345    -1.42300
C519        C  0.37451772  0.20988097  0.55065663     1.09200
C520        C  0.40589191  0.13957312  0.65474880     1.09300
C521        C  0.34074637  0.13596514  0.58352261     1.09300
C522        C  0.43303403  0.21148147  0.63931597     1.09200
O523        O  0.15064967  0.34871235  0.58982466    -0.80400
O524        O  0.21280263  0.42733667  0.65703626    -0.80400
O525        O  0.13632932  0.39604896  0.63899906    -0.80400
O526        O  0.20020625  0.39005127  0.57196581    -0.80400
O527        O  0.16285315  0.40942620  0.67319989    -0.80500
O528        O  0.20219138  0.34494578  0.57278981    -0.80400
O529        O  0.20513224  0.42963141  0.61237753    -0.80400
O530        O  0.12295441  0.34966606  0.62388102    -0.80400
C531        C  0.12613343  0.34655759  0.59900822     1.09300
C532        C  0.20776575  0.44130001  0.63548864     1.09200
C533        C  0.14052287  0.41198078  0.65904852     1.09300
C534        C  0.20080876  0.36732962  0.55917434     1.09200
O535        O  0.22463338  0.32958210  0.62530357    -0.80400
O536        O  0.18857520  0.35468601  0.68675638    -0.80500
O537        O  0.16260222  0.31805158  0.64445830    -0.80400
O538        O  0.25221453  0.40090432  0.63574400    -0.80400
O539        O  0.23601570  0.37202697  0.66566270    -0.80400
O540        O  0.17967600  0.30294823  0.60462006    -0.80400
O541        O  0.24532611  0.35924358  0.59800763    -0.80300
O542        O  0.14533873  0.35955915  0.68060103    -0.80400
Co543      Co  0.18745623  0.34045535  0.61074640     1.51500
Co544      Co  0.19982088  0.38957768  0.66795889     1.51700
Co545      Co  0.15557939  0.36058421  0.64207549     1.51600
Co546      Co  0.22323915  0.39405804  0.60558134     1.51500
O547        O  0.19180685  0.37673579  0.62847626    -1.42300
C548        C  0.24588550  0.33687286  0.61188350     1.09200
C549        C  0.16457857  0.35365417  0.69646264     1.09300
C550        C  0.16966694  0.29800137  0.62817161     1.09300
C551        C  0.25543823  0.38690535  0.65766140     1.09200
O552        O  0.35228717  0.31785891  0.81909133    -0.80400
O553        O  0.32840826  0.37143471  0.76494203    -0.80400
O554        O  0.32680073  0.37077070  0.85759612    -0.80400
O555        O  0.39555382  0.35879078  0.74833447    -0.80400
O556        O  0.31381637  0.35732590  0.81675184    -0.80500
O557        O  0.36641912  0.33098489  0.76751415    -0.80400
O558        O  0.35828819  0.39971642  0.74745510    -0.80400
O559        O  0.36396437  0.33249765  0.85992318    -0.80400
C560        C  0.35392916  0.31398948  0.84452440     1.09300
C561        C  0.33606421  0.38603273  0.74507644     1.09200
C562        C  0.30932227  0.35889908  0.84208618     1.09300
C563        C  0.37954759  0.33785184  0.74645930     1.09200
O564        O  0.42258330  0.34236313  0.78717377    -0.80400
O565        O  0.32624878  0.41399045  0.83433829    -0.80500
O566        O  0.40934161  0.37038482  0.85605600    -0.80400
O567        O  0.38476229  0.42834431  0.79384663    -0.80400
O568        O  0.34065149  0.42746493  0.78464875    -0.80400
O569        O  0.40831008  0.32881424  0.83814600    -0.80400
O570        O  0.42422869  0.38655041  0.79568982    -0.80300
O571        O  0.36796444  0.41412244  0.85201137    -0.80400
Co572      Co  0.38545582  0.33299037  0.80289286     1.51500
Co573      Co  0.33015079  0.39022372  0.80039856     1.51700
Co574      Co  0.36813204  0.37310744  0.85224717     1.51600
Co575      Co  0.38981647  0.39228141  0.77468775     1.51500
O576        O  0.36920002  0.37286527  0.80804254    -1.42300
C577        C  0.43656004  0.36371995  0.79284446     1.09200
C578        C  0.34373882  0.42418894  0.85104172     1.09300
C579        C  0.41772059  0.34531300  0.85640170     1.09300
C580        C  0.36220305  0.44121378  0.79011775     1.09200
O581        O  0.14815770  0.34873830  0.91137263    -0.80400
O582        O  0.07310493  0.28022761  0.84562708    -0.80400
O583        O  0.09801996  0.35555657  0.86910760    -0.80400
O584        O  0.11179703  0.29520255  0.92930184    -0.80400
O585        O  0.08939692  0.33297020  0.83046426    -0.80500
O586        O  0.15637495  0.29591940  0.93046521    -0.80400
O587        O  0.07381077  0.28625582  0.89054332    -0.80400
O588        O  0.14884193  0.37957230  0.87804185    -0.80400
C589        C  0.15214818  0.37395404  0.90333058     1.09300
C590        C  0.06065745  0.28315181  0.86846552     1.09200
C591        C  0.08502918  0.35371384  0.84629402     1.09300
C592        C  0.13369980  0.29688062  0.94312654     1.09200
O593        O  0.17489664  0.27690580  0.87746727    -0.80400
O594        O  0.14413735  0.31030244  0.81722461    -0.80500
O595        O  0.17950864  0.33581244  0.86251982    -0.80400
O596        O  0.10590406  0.24144393  0.86596893    -0.80400
O597        O  0.12912416  0.26057358  0.83288718    -0.80400
O598        O  0.19639257  0.32291531  0.90278556    -0.80400
O599        O  0.14709672  0.25211963  0.90296658    -0.80300
O600        O  0.13851007  0.35317158  0.82881231    -0.80400
Co601      Co  0.16023760  0.31182217  0.89238611     1.51500
Co602      Co  0.11007399  0.29624810  0.83375226     1.51700
Co603      Co  0.13722877  0.34325394  0.86887921     1.51600
Co604      Co  0.11043882  0.27121400  0.89604822     1.51500
O605        O  0.12499051  0.30311320  0.87210254    -1.42300
C606        C  0.16908126  0.25417738  0.88890340     1.09200
C607        C  0.14508078  0.33543233  0.81103787     1.09300
C608        C  0.20016555  0.33317105  0.87925834     1.09300
C609        C  0.11970771  0.23917408  0.84384123     1.09200
O610        O  0.18722058  0.14250400  0.69245482    -0.80400
O611        O  0.13351883  0.16444392  0.74019789    -0.80400
O612        O  0.13783149  0.16885094  0.64749809    -0.80400
O613        O  0.14448404  0.09336222  0.75644689    -0.80400
O614        O  0.14852428  0.18131968  0.68910591    -0.80500
O615        O  0.17014212  0.12501819  0.73979928    -0.80400
O616        O  0.10569538  0.13356010  0.75702171    -0.80400
O617        O  0.17707759  0.13238574  0.65002369    -0.80400
C618        C  0.19328365  0.14307909  0.66762833     1.09300
C619        C  0.12084149  0.15481819  0.76059432     1.09200
C620        C  0.14794911  0.18655000  0.66375679     1.09300
C621        C  0.16511667  0.10935370  0.75941150     1.09200
O622        O  0.16105216  0.06843608  0.71623770    -0.80400
O623        O  0.09322436  0.16841878  0.66882163    -0.80500
O624        O  0.13826562  0.08649332  0.64926475    -0.80400
O625        O  0.07829914  0.10868566  0.70788797    -0.80400
O626        O  0.07854301  0.15231531  0.71881668    -0.80400
O627        O  0.17899932  0.08685658  0.66864084    -0.80400
O628        O  0.11720320  0.06865215  0.70665088    -0.80300
O629        O  0.09510216  0.12793375  0.64844322    -0.80400
Co630      Co  0.17170043  0.10761474  0.70425072     1.51500
Co631      Co  0.11557996  0.16365321  0.70407890     1.51700
Co632      Co  0.13585526  0.12751509  0.65281096     1.51600
Co633      Co  0.11251748  0.10235431  0.72878600     1.51500
O634        O  0.13289006  0.12449686  0.69673586    -1.42300
C635        C  0.13929348  0.05528875  0.70955374     1.09200
C636        C  0.08479091  0.15216490  0.64992830     1.09300
C637        C  0.16280793  0.07723482  0.65032218     1.09300
C638        C  0.06526608  0.13079287  0.71211929     1.09200
O639        O  0.31049105  0.20317589  0.90315899    -0.80400
O640        O  0.27346547  0.12794641  0.83922780    -0.80400
O641        O  0.32343771  0.15130392  0.82875892    -0.80400
O642        O  0.24709033  0.14271737  0.90351917    -0.80400
O643        O  0.31803601  0.10991445  0.81098808    -0.80500
O644        O  0.27209844  0.17048749  0.87845180    -0.80400
O645        O  0.25143983  0.09981045  0.86585522    -0.80400
O646        O  0.34116611  0.18506960  0.87333976    -0.80400
C647        C  0.33001083  0.20621893  0.88598528     1.09300
C648        C  0.25224956  0.11375270  0.84387194     1.09200
C649        C  0.32330337  0.13537176  0.80728498     1.09300
C650        C  0.24919518  0.16456021  0.88903337     1.09200
O651        O  0.28596651  0.16050748  0.93689887    -0.80400
O652        O  0.35099667  0.10062881  0.85516937    -0.80500
O653        O  0.36473348  0.13673438  0.90072825    -0.80400
O654        O  0.29295415  0.07417850  0.89932044    -0.80400
O655        O  0.29924111  0.07525882  0.85419730    -0.80400
O656        O  0.33844649  0.16287556  0.92531427    -0.80400
O657        O  0.28725078  0.11481460  0.93808027    -0.80300
O658        O  0.37436982  0.13921355  0.84660682    -0.80400
Co659      Co  0.30554590  0.16508468  0.90035840     1.51500
Co660      Co  0.31119131  0.11482247  0.84946196     1.51700
Co661      Co  0.34091777  0.14197355  0.86721725     1.51600
Co662      Co  0.27183391  0.10880496  0.90117118     1.51500
O663        O  0.30665912  0.12803529  0.88754920    -1.42300
C664        C  0.28747482  0.13782422  0.95045682     1.09200
C665        C  0.37296471  0.11273524  0.84621054     1.09300
C666        C  0.36177671  0.15228417  0.92137113     1.09300
C667        C  0.29684805  0.06194427  0.87670616     1.09200
O668        O  0.59159582  0.84578395  0.67051608    -0.80400
O669        O  0.66189761  0.77930166  0.57116661    -0.80400
O670        O  0.62976250  0.84925408  0.59073080    -0.80400
O671        O  0.57390644  0.78094651  0.60878622    -0.80400
O672        O  0.67154938  0.83172762  0.58653863    -0.80500
O673        O  0.57941955  0.82342748  0.62232994    -0.80400
O674        O  0.61653297  0.78239260  0.56962677    -0.80400
O675        O  0.61463987  0.87465902  0.64240700    -0.80400
C676        C  0.59727326  0.87079277  0.66203176     1.09300
C677        C  0.63956480  0.78243924  0.55766271     1.09200
C678        C  0.65328559  0.84912404  0.57905427     1.09300
C679        C  0.56344766  0.80409886  0.61530419     1.09200
O680        O  0.58616489  0.78078006  0.66409655    -0.80400
O681        O  0.68733929  0.81312618  0.64091457    -0.80500
O682        O  0.64430557  0.84049995  0.67096428    -0.80400
O683        O  0.64601551  0.73957075  0.60075655    -0.80400
O684        O  0.67681887  0.76080080  0.62596942    -0.80400
O685        O  0.63062663  0.80096788  0.68086542    -0.80400
O686        O  0.60873694  0.74776096  0.64157137    -0.80300
O687        O  0.67132503  0.85444730  0.63250222    -0.80400
Co688      Co  0.60780614  0.81344732  0.65005813     1.51500
Co689      Co  0.67245587  0.79618673  0.60748837     1.51700
Co690      Co  0.63206835  0.84016547  0.63062789     1.51600
Co691      Co  0.61258785  0.76542946  0.60583449     1.51500
O692        O  0.63433253  0.79786645  0.62294344    -1.42300
C693        C  0.59556014  0.75605406  0.66228406     1.09200
C694        C  0.69072170  0.83893005  0.64141677     1.09300
C695        C  0.64297203  0.82169681  0.68840673     1.09300
C696        C  0.66841017  0.73898881  0.61468699     1.09200
O697        O  0.85377949  0.64570598  0.59299351    -0.80400
O698        O  0.79047970  0.56594425  0.65735553    -0.80400
O699        O  0.85910895  0.59328615  0.63441941    -0.80400
O700        O  0.80126961  0.60438180  0.57358482    -0.80400
O701        O  0.83769689  0.58788246  0.67379175    -0.80500
O702        O  0.79846581  0.64902039  0.57361219    -0.80400
O703        O  0.79771373  0.56524764  0.61267235    -0.80400
O704        O  0.88181910  0.64412353  0.62891234    -0.80400
C705        C  0.87848096  0.64824213  0.60356285     1.09300
C706        C  0.79592369  0.55270622  0.63527623     1.09200
C707        C  0.85730019  0.58154363  0.65772433     1.09300
C708        C  0.80046778  0.62675913  0.56048604     1.09200
O709        O  0.77806710  0.66549515  0.62447213    -0.80400
O710        O  0.81140275  0.64104778  0.68489080    -0.80500
O711        O  0.83727133  0.67541073  0.63914307    -0.80400
O712        O  0.74953443  0.59088482  0.63627732    -0.80400
O713        O  0.76334714  0.61953821  0.66796943    -0.80400
O714        O  0.82170518  0.69073479  0.59923936    -0.80400
O715        O  0.75495523  0.63447882  0.60022872    -0.80300
O716        O  0.85413240  0.63594353  0.67354135    -0.80400
Co717      Co  0.81433533  0.65413481  0.61066903     1.51500
Co718      Co  0.80075091  0.60499844  0.66900193     1.51700
Co719      Co  0.84594279  0.63240158  0.63392631     1.51600
Co720      Co  0.77803166  0.59986297  0.60659181     1.51500
O721        O  0.80726166  0.61870898  0.63063863    -1.42300
C722        C  0.75561705  0.65695744  0.61406749     1.09200
C723        C  0.83655680  0.64472125  0.69021351     1.09300
C724        C  0.83183915  0.69581573  0.62257025     1.09300
C725        C  0.74525007  0.60365892  0.65871552     1.09200
O726        O  0.68222578  0.58203494  0.82584078    -0.80400
O727        O  0.57260248  0.65638572  0.79191926    -0.80400
O728        O  0.61786465  0.64274340  0.87166470    -0.80400
O729        O  0.61549863  0.57314425  0.76998666    -0.80400
O730        O  0.59850448  0.67041352  0.84059841    -0.80500
O731        O  0.62980237  0.57581278  0.81172588    -0.80400
O732        O  0.57426542  0.61105434  0.78747559    -0.80400
O733        O  0.65264342  0.60267688  0.85452398    -0.80400
C734        C  0.67288582  0.58596500  0.85011184     1.09300
C735        C  0.56089221  0.63296126  0.79269226     1.09200
C736        C  0.60105006  0.66214801  0.86573423     1.09300
C737        C  0.62223437  0.56115596  0.79186196     1.09200
O738        O  0.66849072  0.59194935  0.76642808    -0.80400
O739        O  0.64365041  0.69097230  0.80788440    -0.80500
O740        O  0.67316184  0.64362063  0.84016454    -0.80400
O741        O  0.59182969  0.64737303  0.74410344    -0.80400
O742        O  0.62054516  0.67638762  0.76202034    -0.80400
O743        O  0.68749726  0.63138494  0.79955119    -0.80400
O744        O  0.63905346  0.61480580  0.73909614    -0.80300
O745        O  0.65390250  0.66778682  0.84486032    -0.80400
Co746      Co  0.65776895  0.60532771  0.80468496     1.51500
Co747      Co  0.61062423  0.67024883  0.79985072     1.51700
Co748      Co  0.63052004  0.63352149  0.83555349     1.51600
Co749      Co  0.60684229  0.61312773  0.76342812     1.51500
O750        O  0.63052266  0.63249237  0.79415104    -1.42300
C751        C  0.66189019  0.60233156  0.74283025     1.09200
C752        C  0.65457680  0.69041704  0.83121352     1.09300
C753        C  0.69307548  0.64165676  0.82243242     1.09300
C754        C  0.60413061  0.67029542  0.74316498     1.09200
O755        O  0.90580252  0.82461900  0.65574278    -0.80400
O756        O  0.84828448  0.92664012  0.70168426    -0.80400
O757        O  0.84674875  0.87655995  0.61616795    -0.80400
O758        O  0.93101158  0.88287194  0.70009362    -0.80400
O759        O  0.84733062  0.90975207  0.64735261    -0.80500
O760        O  0.92797978  0.83771890  0.70555229    -0.80400
O761        O  0.89302454  0.92586096  0.69864863    -0.80400
O762        O  0.89864374  0.86514558  0.63561452    -0.80400
C763        C  0.91014230  0.84133847  0.63589304     1.09300
C764        C  0.87068613  0.93952923  0.69967172     1.09200
C765        C  0.84261869  0.90171719  0.62219685     1.09300
C766        C  0.94241836  0.85937910  0.70151069     1.09200
O767        O  0.87335514  0.82910483  0.73016594    -0.80400
O768        O  0.80400127  0.90204402  0.68036055    -0.80500
O769        O  0.85561007  0.82718681  0.64051337    -0.80400
O770        O  0.86377235  0.89934465  0.74376269    -0.80400
O771        O  0.83096344  0.87546454  0.72299145    -0.80400
O772        O  0.85238693  0.81451437  0.68269358    -0.80400
O773        O  0.90304820  0.85782092  0.74757639    -0.80300
O774        O  0.81875561  0.86291995  0.66152781    -0.80400
Co775      Co  0.88881416  0.82874306  0.69357953     1.51500
Co776      Co  0.84076997  0.88977175  0.68591866     1.51700
Co777      Co  0.86069263  0.86708822  0.65090796     1.51600
Co778      Co  0.89670046  0.89038638  0.71999527     1.51500
O779        O  0.87628342  0.86847726  0.68941919    -1.42300
C780        C  0.88767993  0.83648292  0.75026674     1.09200
C781        C  0.79883407  0.87939767  0.66847602     1.09300
C782        C  0.84914878  0.80887680  0.65779879     1.09300
C783        C  0.84044362  0.88740490  0.74433481     1.09200
O784        O  0.82751602  0.66515262  0.90857779    -0.80400
O785        O  0.92470536  0.70764877  0.84123320    -0.80400
O786        O  0.87552891  0.62068217  0.84882894    -0.80400
O787        O  0.89047285  0.70781459  0.92665877    -0.80400
O788        O  0.90751775  0.65324785  0.84626445    -0.80500
O789        O  0.84538473  0.71434948  0.92816559    -0.80400
O790        O  0.92729671  0.70434131  0.88547763    -0.80400
O791        O  0.86614868  0.64236006  0.90084546    -0.80400
C792        C  0.84346529  0.64482006  0.91388963     1.09300
C793        C  0.93921773  0.70564593  0.86264722     1.09200
C794        C  0.90030889  0.62742467  0.84368430     1.09300
C795        C  0.86851637  0.70970349  0.94016066     1.09200
O796        O  0.83286715  0.73817629  0.87308775    -0.80400
O797        O  0.89558418  0.68462569  0.80201002    -0.80500
O798        O  0.82506702  0.64692582  0.85964493    -0.80400
O799        O  0.89835768  0.75017340  0.85659119    -0.80400
O800        O  0.87120725  0.72780303  0.82794600    -0.80400
O801        O  0.81380561  0.69010197  0.85583394    -0.80400
O802        O  0.86348432  0.75517504  0.90079546    -0.80300
O803        O  0.85828088  0.66562591  0.81993223    -0.80400
Co804      Co  0.83172374  0.70204315  0.89021570     1.51500
Co805      Co  0.88702615  0.69134908  0.83869215     1.51700
Co806      Co  0.86572577  0.65632070  0.86189504     1.51600
Co807      Co  0.89381307  0.72698173  0.89149933     1.51500
O808        O  0.86945976  0.69585656  0.87520864    -1.42300
C809        C  0.84075483  0.75765964  0.88786344     1.09200
C810        C  0.87251803  0.67309728  0.79874468     1.09300
C811        C  0.80713052  0.66507170  0.85347154     1.09300
C812        C  0.88396014  0.74976208  0.83449592     1.09200
O813        O  0.66488253  0.90729078  0.82299961    -0.80400
O814        O  0.71761497  0.84930269  0.92170089    -0.80400
O815        O  0.63537721  0.84278666  0.87652444    -0.80400
O816        O  0.71107509  0.93216205  0.87870580    -0.80400
O817        O  0.66642340  0.84595442  0.90782197    -0.80500
O818        O  0.71509854  0.93010106  0.83387084    -0.80400
O819        O  0.71179514  0.89419357  0.92017162    -0.80400
O820        O  0.64330602  0.89062298  0.85908602    -0.80400
C821        C  0.64398828  0.90708007  0.83905394     1.09300
C822        C  0.71346851  0.87214415  0.93410298     1.09200
C823        C  0.64159154  0.84083834  0.90114711     1.09300
C824        C  0.71080752  0.94394960  0.85558019     1.09200
O825        O  0.74112325  0.87584699  0.82360387    -0.80400
O826        O  0.69831967  0.80322063  0.89081309    -0.80500
O827        O  0.65147224  0.85473267  0.81643855    -0.80400
O828        O  0.75750440  0.86589378  0.89311192    -0.80400
O829        O  0.73726156  0.83504033  0.86694075    -0.80400
O830        O  0.69447815  0.85479836  0.80819465    -0.80400
O831        O  0.75826922  0.90531917  0.85266372    -0.80300
O832        O  0.67707875  0.81619031  0.85194928    -0.80400
Co833      Co  0.70385914  0.89089986  0.82509272     1.51500
Co834      Co  0.70126911  0.84164485  0.88420199     1.51700
Co835      Co  0.66491029  0.85718898  0.85463105     1.51600
Co836      Co  0.73221977  0.89833677  0.88518535     1.51500
O837        O  0.70029883  0.87781392  0.86534458    -1.42300
C838        C  0.76126282  0.88953241  0.83191800     1.09200
C839        C  0.68746250  0.79713274  0.86772328     1.09300
C840        C  0.67035185  0.85113373  0.79957310     1.09300
C841        C  0.75815564  0.84288073  0.88054452     1.09200
O842        O  0.32984288  0.83366186  0.59669978    -0.80400
O843        O  0.43339352  0.79062602  0.65631104    -0.80400
O844        O  0.40935379  0.85569627  0.64251338    -0.80400
O845        O  0.38699985  0.79853238  0.57499427    -0.80400
O846        O  0.41151532  0.83401397  0.68158547    -0.80500
O847        O  0.34474439  0.78445994  0.57683109    -0.80400
O848        O  0.42862526  0.80171792  0.61278545    -0.80400
O849        O  0.37001068  0.85376505  0.60065629    -0.80400
C850        C  0.34608304  0.85355170  0.59071394     1.09300
C851        C  0.44401868  0.79790860  0.63329933     1.09200
C852        C  0.41955945  0.85367611  0.66648908     1.09300
C853        C  0.36509908  0.79198889  0.56243462     1.09200
O854        O  0.33766740  0.75905201  0.63150787    -0.80400
O855        O  0.35959151  0.80652254  0.69208708    -0.80500
O856        O  0.32624974  0.85056130  0.64240791    -0.80400
O857        O  0.41086493  0.74926428  0.63804783    -0.80400
O858        O  0.38064912  0.75985312  0.66870570    -0.80400
O859        O  0.31986820  0.80716033  0.65110055    -0.80400
O860        O  0.36830724  0.74668618  0.60155519    -0.80300
O861        O  0.36436655  0.85004267  0.68124226    -0.80400
Co862      Co  0.33593319  0.79644673  0.61612197     1.51500
Co863      Co  0.39406266  0.79760333  0.67172501     1.51700
Co864      Co  0.36881368  0.84888487  0.64024638     1.51600
Co865      Co  0.39712062  0.77711423  0.60858010     1.51500
O866        O  0.37456573  0.80549061  0.63370330    -1.42300
C867        C  0.34782622  0.74054874  0.61659315     1.09200
C868        C  0.35489627  0.83181334  0.69728393     1.09300
C869        C  0.31070165  0.83131041  0.65103580     1.09300
C870        C  0.39831227  0.74319216  0.66013724     1.09200
O871        O  0.31685877  0.64894687  0.81466325    -0.80400
O872        O  0.38241646  0.67055143  0.76226515    -0.80400
O873        O  0.36037632  0.67703911  0.84669468    -0.80400
O874        O  0.36187526  0.60267181  0.74681212    -0.80400
O875        O  0.35859562  0.68753750  0.80466007    -0.80500
O876        O  0.33239989  0.63235258  0.76388185    -0.80400
O877        O  0.40738620  0.63602442  0.74828316    -0.80400
O878        O  0.33054732  0.64087083  0.85673758    -0.80400
C879        C  0.31183332  0.64922930  0.84010366     1.09300
C880        C  0.39720258  0.65994411  0.74403072     1.09200
C881        C  0.35383307  0.69391581  0.82849995     1.09300
C882        C  0.34097219  0.61869343  0.74371654     1.09200
O883        O  0.34085067  0.57627504  0.78499300    -0.80400
O884        O  0.40815900  0.66805210  0.84351913    -0.80500
O885        O  0.37027873  0.59618040  0.85374702    -0.80400
O886        O  0.42718107  0.60809994  0.79852927    -0.80400
O887        O  0.42997750  0.65279659  0.79359408    -0.80400
O888        O  0.32875618  0.59452694  0.83567757    -0.80400
O889        O  0.38378887  0.57401580  0.79731705    -0.80300
O890        O  0.38699138  0.64500546  0.87795108    -0.80400
Co891      Co  0.33195970  0.61465387  0.79948631     1.51500
Co892      Co  0.39251285  0.66701503  0.80127738     1.51700
Co893      Co  0.37054277  0.63611640  0.84475636     1.51600
Co894      Co  0.39347991  0.60648249  0.77531556     1.51500
O895        O  0.37094299  0.63014158  0.80369392    -1.42300
C896        C  0.36145771  0.56192805  0.79277099     1.09200
C897        C  0.40629717  0.66088398  0.86971354     1.09300
C898        C  0.34564721  0.58731394  0.85461080     1.09300
C899        C  0.44152812  0.62973768  0.79780315     1.09200
O900        O  0.19777770  0.68266431  0.63981634    -0.80400
O901        O  0.23342772  0.62860820  0.66702147    -0.80400
O902        O  0.17203826  0.64026081  0.67613881    -0.80400
O903        O  0.26184181  0.63422409  0.59418585    -0.80400
O904        O  0.19170625  0.60384031  0.69538695    -0.80500
O905        O  0.24598112  0.66772742  0.61969081    -0.80400
O906        O  0.25599828  0.60074767  0.63922932    -0.80400
O907        O  0.15473529  0.67184541  0.63533694    -0.80400
C908        C  0.17301193  0.68924672  0.64202279     1.09300
C909        C  0.25551439  0.61649285  0.66039302     1.09200
C910        C  0.17861709  0.62630701  0.69792692     1.09300
C911        C  0.26580495  0.65663508  0.60732007     1.09200
O912        O  0.22003727  0.65336143  0.56758587    -0.80400
O913        O  0.16032551  0.59043813  0.65151216    -0.80500
O914        O  0.15033382  0.62913700  0.59579375    -0.80400
O915        O  0.20986648  0.57191108  0.61036289    -0.80400
O916        O  0.21446911  0.57424786  0.65466208    -0.80400
O917        O  0.17033069  0.66916937  0.58662877    -0.80400
O918        O  0.21449067  0.60806262  0.56823614    -0.80300
O919        O  0.12805729  0.62260720  0.64751358    -0.80400
Co920      Co  0.20837486  0.66646681  0.60476280     1.51500
Co921      Co  0.19795385  0.61180437  0.65777209     1.51700
Co922      Co  0.16369392  0.63130178  0.63437978     1.51600
Co923      Co  0.23323077  0.60457600  0.60390956     1.51500
O924        O  0.20282140  0.62877434  0.62064329    -1.42300
C925        C  0.21599375  0.63052601  0.55510651     1.09200
C926        C  0.13474396  0.59801962  0.65413914     1.09300
C927        C  0.15097145  0.65170211  0.58222212     1.09300
C928        C  0.21038092  0.56004398  0.63332802     1.09200
O929        O  0.16925916  0.89459250  0.65666201    -0.80400
O930        O  0.07571963  0.83687627  0.72057959    -0.80400
O931        O  0.09558701  0.86158996  0.64993646    -0.80400
O932        O  0.11251030  0.92132979  0.69892521    -0.80400
O933        O  0.09074417  0.82089206  0.66960702    -0.80500
O934        O  0.15721879  0.92154677  0.70423735    -0.80400
O935        O  0.07482772  0.87891784  0.70466443    -0.80400
O936        O  0.14439362  0.87275577  0.62370495    -0.80400
C937        C  0.16152292  0.89148892  0.63086223     1.09300
C938        C  0.06210981  0.85708989  0.71087597     1.09200
C939        C  0.08397925  0.83792505  0.65049320     1.09300
C940        C  0.13496075  0.93459766  0.70011204     1.09200
O941        O  0.17141966  0.87426797  0.73815709    -0.80400
O942        O  0.14531373  0.80684438  0.69040923    -0.80500
O943        O  0.17706324  0.84684486  0.65620980    -0.80400
O944        O  0.10433844  0.86085656  0.75546118    -0.80400
O945        O  0.13067364  0.82629256  0.74158787    -0.80400
O946        O  0.18739007  0.84649650  0.69811676    -0.80400
O947        O  0.13956376  0.90369674  0.74959586    -0.80300
O948        O  0.13643612  0.81920329  0.64792901    -0.80400
Co949      Co  0.16846122  0.88203501  0.69920509     1.51500
Co950      Co  0.11252038  0.82484973  0.70558210     1.51700
Co951      Co  0.13586885  0.85946496  0.65796327     1.51600
Co952      Co  0.10874737  0.88936186  0.72464004     1.51500
O953        O  0.13044275  0.86267242  0.69863537    -1.42300
C954        C  0.16250220  0.89196107  0.75447317     1.09200
C955        C  0.14511431  0.80130062  0.66502453     1.09300
C956        C  0.19443424  0.84126452  0.67455343     1.09300
C957        C  0.11958569  0.83980685  0.76081735     1.09200
O958        O  0.19395815  0.67587682  0.89631926    -0.80400
O959        O  0.12558982  0.74202087  0.83157942    -0.80400
O960        O  0.13541327  0.65091160  0.82095454    -0.80400
O961        O  0.14315438  0.74594774  0.90187338    -0.80400
O962        O  0.14122094  0.69357776  0.80958725    -0.80500
O963        O  0.17208178  0.72343087  0.87527050    -0.80400
O964        O  0.10095571  0.75722292  0.86610681    -0.80400
O965        O  0.17812057  0.66678209  0.85470857    -0.80400
C966        C  0.19872449  0.66925429  0.87172779     1.09300
C967        C  0.11526662  0.76186802  0.84474558     1.09200
C968        C  0.14323351  0.66836987  0.80354790     1.09300
C969        C  0.16571352  0.74507792  0.88839041     1.09200
O970        O  0.15459821  0.69962196  0.92609963    -0.80400
O971        O  0.08741700  0.66959178  0.82508843    -0.80500
O972        O  0.14684283  0.62145442  0.86435931    -0.80400
O973        O  0.07071863  0.70932287  0.88695052    -0.80400
O974        O  0.07116463  0.71990889  0.84302787    -0.80400
O975        O  0.14660648  0.64770367  0.90145525    -0.80400
O976        O  0.11010028  0.70010064  0.92568707    -0.80300
O977        O  0.09664062  0.64652715  0.86326351    -0.80400
Co978      Co  0.15799713  0.68700366  0.88673500     1.51500
Co979      Co  0.10772077  0.70598968  0.82943596     1.51700
Co980      Co  0.13568062  0.65838579  0.86111641     1.51600
Co981      Co  0.10697775  0.72594981  0.89388349     1.51500
O982        O  0.12310263  0.69737196  0.86722515    -1.42300
C983        C  0.13227005  0.69882972  0.93929037     1.09200
C984        C  0.08255793  0.64930341  0.84134953     1.09300
C985        C  0.14971510  0.62358290  0.88997288     1.09300
C986        C  0.05820183  0.71217345  0.86431274     1.09200
O987        O  0.31356800  0.89077586  0.81134798    -0.80400
O988        O  0.27266227  0.82503310  0.89198560    -0.80400
O989        O  0.32813452  0.82097441  0.84544455    -0.80400
O990        O  0.24263557  0.88032889  0.85858514    -0.80400
O991        O  0.32413545  0.80976828  0.88823532    -0.80500
O992        O  0.26728054  0.91040758  0.83532448    -0.80400
O993        O  0.24498794  0.85575081  0.90846232    -0.80400
O994        O  0.31565948  0.84724839  0.82121088    -0.80400
C995        C  0.31384503  0.86557478  0.80340145     1.09300
C996        C  0.24881367  0.83173825  0.89916790     1.09200
C997        C  0.32783247  0.80294576  0.86352080     1.09300
C998        C  0.24532491  0.89603591  0.83830137     1.09200
O999        O  0.30429338  0.93129259  0.88231245    -0.80400
O1000       O  0.34179420  0.85932391  0.91788166    -0.80500
O1001       O  0.36195720  0.87978643  0.83603636    -0.80400
O1002       O  0.27864599  0.90224415  0.92710454    -0.80400
O1003       O  0.28982649  0.85985523  0.93804610    -0.80400
O1004       O  0.34704200  0.91451583  0.85860842    -0.80400
O1005       O  0.26078978  0.93111222  0.88165941    -0.80300
O1006       O  0.36300984  0.84672947  0.88066237    -0.80400
Co1007     Co  0.30733782  0.90907518  0.84926231     1.51500
Co1008     Co  0.30650521  0.84376208  0.90460746     1.51700
Co1009     Co  0.33230494  0.85869115  0.85537078     1.51600
Co1010     Co  0.26127981  0.89047110  0.89219280     1.51500
O1011       O  0.30001406  0.87566131  0.87573965    -1.42300
C1012       C  0.28265472  0.94468228  0.88313610     1.09200
C1013       C  0.36323964  0.85042084  0.90641561     1.09300
C1014       C  0.36569657  0.90411433  0.84415651     1.09300
C1015       C  0.28661856  0.88486172  0.94464557     1.09200
O1016       O  0.20198829  0.63106642  0.31045661    -0.80400
O1017       O  0.25191251  0.66902754  0.37084785    -0.80400
O1018       O  0.16051368  0.66314701  0.35142027    -0.80400
O1019       O  0.26273297  0.60208536  0.35352759    -0.80400
O1020       O  0.20148687  0.68174359  0.35224304    -0.80500
O1021       O  0.22987934  0.58635491  0.32562029    -0.80400
O1022       O  0.26896737  0.63646748  0.39716906    -0.80400
O1023       O  0.16216023  0.64240589  0.32473214    -0.80400
C1024       C  0.17912021  0.64183240  0.30485117     1.09300
C1025       C  0.27227426  0.65795040  0.38277366     1.09200
C1026       C  0.17598877  0.68499742  0.35044612     1.09300
C1027       C  0.25491062  0.59382724  0.33006529     1.09200
O1028       O  0.18682007  0.57445149  0.36803395    -0.80400
O1029       O  0.17722642  0.66998511  0.40488650    -0.80500
O1030       O  0.13819117  0.60367215  0.34711361    -0.80400
O1031       O  0.22442868  0.60910070  0.42417267    -0.80400
O1032       O  0.22808829  0.65471842  0.42377684    -0.80400
O1033       O  0.16796874  0.58426671  0.31827174    -0.80400
O1034       O  0.22785765  0.56715890  0.38460032    -0.80300
O1035       O  0.15008432  0.63511054  0.39352916    -0.80400
Co1036     Co  0.19551989  0.60458428  0.34101835     1.51500
Co1037     Co  0.21465509  0.66691128  0.38658430     1.51700
Co1038     Co  0.17153193  0.62184869  0.36106120     1.51600
Co1039     Co  0.24311400  0.60513651  0.38865728     1.51500
O1040       O  0.21231809  0.62877994  0.37039884    -1.42300
C1041       C  0.20432075  0.55821722  0.37857249     1.09200
C1042       C  0.15442684  0.65715273  0.40715693     1.09300
C1043       C  0.14295166  0.58695031  0.32715134     1.09300
C1044       C  0.22397790  0.63216665  0.43662688     1.09200
O1045       O  0.35112496  0.60152480  0.14782366    -0.80400
O1046       O  0.43107023  0.66384333  0.21136538    -0.80400
O1047       O  0.40325714  0.64151113  0.14284089    -0.80400
O1048       O  0.38881870  0.58105817  0.19899947    -0.80400
O1049       O  0.41035040  0.68192242  0.16254832    -0.80500
O1050       O  0.34420749  0.58131214  0.19992047    -0.80400
O1051       O  0.42967335  0.61862359  0.20516422    -0.80400
O1052       O  0.35299651  0.63491560  0.11687604    -0.80400
C1053       C  0.34782944  0.60980817  0.12259386     1.09300
C1054       C  0.44323350  0.64082048  0.20713748     1.09200
C1055       C  0.41454723  0.66510725  0.14269894     1.09300
C1056       C  0.36646717  0.56787877  0.19895023     1.09200
O1057       O  0.32710789  0.63198413  0.22212442    -0.80400
O1058       O  0.35755292  0.69398630  0.19033110    -0.80500
O1059       O  0.32281479  0.65020528  0.16068449    -0.80400
O1060       O  0.40405386  0.64270780  0.25266294    -0.80400
O1061       O  0.37834074  0.67628909  0.23769208    -0.80400
O1062       O  0.30430468  0.61123687  0.17488287    -0.80400
O1063       O  0.35846894  0.60718903  0.24453609    -0.80300
O1064       O  0.36172724  0.68411179  0.14709877    -0.80400
Co1065     Co  0.34067877  0.61992677  0.18576001     1.51500
Co1066     Co  0.39294667  0.67706007  0.20036942     1.51700
Co1067     Co  0.36445468  0.64281218  0.15397771     1.51600
Co1068     Co  0.39404978  0.61367417  0.22319622     1.51500
O1069       O  0.37671820  0.63907149  0.19381290    -1.42300
C1070       C  0.33421099  0.61778293  0.24302560     1.09200
C1071       C  0.35514502  0.70126501  0.16577138     1.09300
C1072       C  0.30169029  0.63443422  0.16302621     1.09300
C1073       C  0.39397207  0.66681878  0.25600144     1.09200
O1074       O  0.40076757  0.85211089  0.33496920    -0.80400
O1075       O  0.34669609  0.77932901  0.42615019    -0.80400
O1076       O  0.36625156  0.85212320  0.40576446    -0.80400
O1077       O  0.42944745  0.80662007  0.39303052    -0.80400
O1078       O  0.32769342  0.82890989  0.40954862    -0.80500
O1079       O  0.43247843  0.80513369  0.34846713    -0.80400
O1080       O  0.38767412  0.79697500  0.42828942    -0.80400
O1081       O  0.37339150  0.88220367  0.35798727    -0.80400
C1082       C  0.39407639  0.87753820  0.34239855     1.09300
C1083       C  0.36662942  0.78851305  0.44066511     1.09200
C1084       C  0.34294416  0.84915884  0.41699675     1.09300
C1085       C  0.44390508  0.80855445  0.37174986     1.09200
O1086       O  0.38847576  0.76814920  0.32982031    -0.80400
O1087       O  0.31683893  0.80653289  0.35421249    -0.80500
O1088       O  0.35170379  0.84822808  0.32488535    -0.80400
O1089       O  0.37296879  0.74595303  0.39695837    -0.80400
O1090       O  0.33971087  0.75883508  0.36909404    -0.80400
O1091       O  0.35940852  0.80720738  0.31256315    -0.80400
O1092       O  0.41591378  0.75491586  0.36270446    -0.80300
O1093       O  0.32153524  0.85007251  0.36437012    -0.80400
Co1094     Co  0.39323690  0.80792868  0.33450224     1.51500
Co1095     Co  0.33494921  0.79369149  0.38800790     1.51700
Co1096     Co  0.36375058  0.84574873  0.36572200     1.51600
Co1097     Co  0.39944060  0.77880173  0.39381028     1.51500
O1098       O  0.37200403  0.80477077  0.37132679    -1.42300
C1099       C  0.40479710  0.75045572  0.33936348     1.09200
C1100       C  0.30650818  0.83033341  0.35517749     1.09300
C1101       C  0.34938282  0.82998456  0.30687648     1.09300
C1102       C  0.35292057  0.73995285  0.38089201     1.09200
O1103       O  0.14218700  0.68832849  0.18433814    -0.80400
O1104       O  0.16517317  0.72577732  0.12727314    -0.80400
O1105       O  0.17355829  0.66355175  0.13996977    -0.80400
O1106       O  0.09716222  0.75568298  0.13793262    -0.80400
O1107       O  0.19186753  0.68273909  0.10299725    -0.80500
O1108       O  0.12480172  0.73829125  0.16917864    -0.80400
O1109       O  0.13683464  0.74834661  0.09975882    -0.80400
O1110       O  0.13452635  0.64564754  0.17395894    -0.80400
C1111       C  0.14341184  0.66333049  0.19129736     1.09300
C1112       C  0.15884108  0.74745166  0.11414446     1.09200
C1113       C  0.19470810  0.66924554  0.12517013     1.09300
C1114       C  0.11276444  0.75888624  0.15891790     1.09200
O1115       O  0.06919527  0.71705251  0.15910905    -0.80400
O1116       O  0.14652140  0.65300511  0.09136255    -0.80500
O1117       O  0.09300837  0.64508348  0.13092429    -0.80400
O1118       O  0.10478277  0.70415900  0.07296796    -0.80400
O1119       O  0.14960514  0.70559189  0.07348551    -0.80400
O1120       O  0.08692651  0.66572570  0.17109943    -0.80400
O1121       O  0.06612629  0.70982071  0.11442058    -0.80300
O1122       O  0.14409361  0.61967774  0.12237376    -0.80400
Co1123     Co  0.10697481  0.70216300  0.16902676     1.51500
Co1124     Co  0.15478513  0.69026401  0.11165296     1.51700
Co1125     Co  0.13186526  0.65599591  0.13291981     1.51600
Co1126     Co  0.10188568  0.72704997  0.10717969     1.51500
O1127       O  0.11925624  0.69584127  0.13039736    -1.42300
C1128       C  0.05478013  0.71245887  0.13762047     1.09200
C1129       C  0.15080835  0.62750227  0.09835847     1.09300
C1130       C  0.07989159  0.64751486  0.15324366     1.09300
C1131       C  0.12729307  0.70331157  0.05992931     1.09200
O1132       O  0.18104872  0.84203380  0.31221748    -0.80400
O1133       O  0.12196139  0.82413819  0.26420357    -0.80400
O1134       O  0.12839428  0.81547349  0.35795819    -0.80400
O1135       O  0.13724515  0.89976924  0.25606976    -0.80400
O1136       O  0.13544694  0.80329017  0.31503516    -0.80500
O1137       O  0.16902915  0.87054322  0.26947403    -0.80400
O1138       O  0.09800139  0.86015765  0.24967392    -0.80400
O1139       O  0.17096606  0.84449448  0.35386493    -0.80400
C1140       C  0.18850736  0.83864868  0.33617683     1.09300
C1141       C  0.11126409  0.83778798  0.24472298     1.09200
C1142       C  0.13533351  0.79719449  0.34026619     1.09300
C1143       C  0.16029471  0.88781897  0.25217054     1.09200
O1144       O  0.15564712  0.91829083  0.30158535    -0.80400
O1145       O  0.08263637  0.82151968  0.33555327    -0.80500
O1146       O  0.13738908  0.87068265  0.38455236    -0.80400
O1147       O  0.07007006  0.88105761  0.30001276    -0.80400
O1148       O  0.06780137  0.83888826  0.28480147    -0.80400
O1149       O  0.16143124  0.89207806  0.35100158    -0.80400
O1150       O  0.11114602  0.92012339  0.30621131    -0.80300
O1151       O  0.09007885  0.86230274  0.35385278    -0.80400
Co1152     Co  0.16394307  0.87848419  0.30857484     1.51500
Co1153     Co  0.10410308  0.82412784  0.29998555     1.51700
Co1154     Co  0.13008700  0.85687994  0.34915854     1.51600
Co1155     Co  0.10515254  0.88827947  0.28067398     1.51500
O1156       O  0.12523912  0.86049307  0.30756104    -1.42300
C1157       C  0.13417933  0.93238925  0.30541620     1.09200
C1158       C  0.07692207  0.83967527  0.35367727     1.09300
C1159       C  0.15325091  0.89035645  0.37683541     1.09300
C1160       C  0.05559096  0.86045679  0.29334512     1.09200
O1161       O  0.32882741  0.92153067  0.17915863    -0.80400
O1162       O  0.27893250  0.85876675  0.06512369    -0.80400
O1163       O  0.35906398  0.86298798  0.11705249    -0.80400
O1164       O  0.26439411  0.92977346  0.12340498    -0.80400
O1165       O  0.33524431  0.85741925  0.07952264    -0.80500
O1166       O  0.30860239  0.92719935  0.12679156    -0.80400
O1167       O  0.27081476  0.90107012  0.07728337    -0.80400
O1168       O  0.35974683  0.89555136  0.15832330    -0.80400
C1169       C  0.35427109  0.91552243  0.17442594     1.09300
C1170       C  0.27773861  0.88398205  0.05933061     1.09200
C1171       C  0.35833300  0.85670363  0.09204051     1.09300
C1172       C  0.28733889  0.94148222  0.12153359     1.09200
O1173       O  0.26782547  0.91264040  0.17177925    -0.80400
O1174       O  0.32067376  0.81472800  0.11656532    -0.80500
O1175       O  0.33377986  0.85250503  0.17368949    -0.80400
O1176       O  0.23740751  0.85573195  0.10144516    -0.80400
O1177       O  0.26774498  0.82209123  0.10766813    -0.80400
O1178       O  0.29887902  0.87360956  0.18876972    -0.80400
O1179       O  0.23958678  0.88437369  0.14980915    -0.80300
O1180       O  0.33816610  0.83757597  0.15203346    -0.80400
Co1181     Co  0.30418996  0.89789334  0.15584230     1.51500
Co1182     Co  0.30022755  0.84127332  0.09494050     1.51700
Co1183     Co  0.32925458  0.87809578  0.14043665     1.51600
Co1184     Co  0.25586265  0.89082654  0.11370329     1.51500
O1185       O  0.29095953  0.86924397  0.12666478    -1.42300
C1186       C  0.24445364  0.90026552  0.16994347     1.09200
C1187       C  0.33396631  0.81495641  0.13852841     1.09300
C1188       C  0.31840435  0.85755743  0.19412114     1.09300
C1189       C  0.24320541  0.83057197  0.10670119     1.09200
O1190       O  0.84899137  0.58682981  0.34989655    -0.80400
O1191       O  0.78935848  0.65287207  0.42908886    -0.80400
O1192       O  0.86036467  0.62827211  0.40369111    -0.80400
O1193       O  0.79896877  0.56757497  0.38889752    -0.80400
O1194       O  0.83984817  0.66844661  0.41068417    -0.80500
O1195       O  0.79545261  0.56955366  0.34450235    -0.80400
O1196       O  0.79568070  0.60752619  0.42936297    -0.80400
O1197       O  0.88181698  0.61860642  0.35254386    -0.80400
C1198       C  0.87455344  0.59400917  0.34702345     1.09300
C1199       C  0.79399423  0.63037055  0.44199827     1.09200
C1200       C  0.85954221  0.65156037  0.41612283     1.09300
C1201       C  0.79781144  0.55525020  0.36600801     1.09200
O1202       O  0.77524974  0.62234420  0.32977570    -0.80400
O1203       O  0.81471933  0.68088323  0.35674308    -0.80500
O1204       O  0.83788657  0.63522261  0.32267307    -0.80400
O1205       O  0.74896195  0.63253015  0.40205722    -0.80400
O1206       O  0.76576743  0.66442923  0.37512326    -0.80400
O1207       O  0.81909790  0.59769388  0.30426657    -0.80400
O1208       O  0.75326458  0.59620809  0.35960643    -0.80300
O1209       O  0.85727559  0.66804916  0.36151437    -0.80400
Co1210     Co  0.81159415  0.60724219  0.34108289     1.51500
Co1211     Co  0.80236859  0.66467718  0.39167639     1.51700
Co1212     Co  0.84659460  0.62820678  0.36475229     1.51600
Co1213     Co  0.77667528  0.60196484  0.39424522     1.51500
O1214       O  0.80715989  0.62600742  0.37725765    -1.42300
C1215       C  0.75359663  0.60949950  0.33687285     1.09200
C1216       C  0.83993039  0.68615224  0.35425726     1.09300
C1217       C  0.83118391  0.62060142  0.30140227     1.09300
C1218       C  0.74553263  0.65386953  0.38717648     1.09200
O1219       O  0.63612248  0.79482017  0.31142587    -0.80400
O1220       O  0.67762379  0.76076560  0.37571375    -0.80400
O1221       O  0.67026045  0.85387499  0.36164298    -0.80400
O1222       O  0.60875662  0.74271674  0.35856058    -0.80400
O1223       O  0.68653542  0.81216866  0.35747270    -0.80500
O1224       O  0.59031216  0.77239123  0.32901687    -0.80400
O1225       O  0.64468809  0.74168564  0.40005600    -0.80400
O1226       O  0.64660464  0.83530021  0.32262051    -0.80400
C1227       C  0.64811039  0.81654160  0.30523951     1.09300
C1228       C  0.66659670  0.73959762  0.38597368     1.09200
C1229       C  0.69052105  0.83777547  0.35690830     1.09300
C1230       C  0.59782590  0.74765212  0.33550584     1.09200
O1231       O  0.58068175  0.82017712  0.36553476    -0.80400
O1232       O  0.66678570  0.83542487  0.40901362    -0.80500
O1233       O  0.61204967  0.86816357  0.34400432    -0.80400
O1234       O  0.61432191  0.78684974  0.42633469    -0.80400
O1235       O  0.65946514  0.78286280  0.42709926    -0.80400
O1236       O  0.59230939  0.83652700  0.31596829    -0.80400
O1237       O  0.57322618  0.78068610  0.38568169    -0.80300
O1238       O  0.62460865  0.84942559  0.39877110    -0.80400
Co1239     Co  0.61020641  0.80769868  0.34028042     1.51500
Co1240     Co  0.67092368  0.79757828  0.39089416     1.51700
Co1241     Co  0.63140478  0.83716242  0.36080264     1.51600
Co1242     Co  0.61153957  0.76578741  0.39163810     1.51500
O1243       O  0.63429860  0.79577019  0.37166990    -1.42300
C1244       C  0.56419453  0.80324415  0.37609077     1.09200
C1245       C  0.64722386  0.85302573  0.41166872     1.09300
C1246       C  0.59550004  0.86218960  0.32394148     1.09300
C1247       C  0.63687165  0.78650216  0.43949252     1.09200
O1248       O  0.68485096  0.65245870  0.18836832    -0.80400
O1249       O  0.62576349  0.67371615  0.22896967    -0.80400
O1250       O  0.63699691  0.68405347  0.16582698    -0.80400
O1251       O  0.64382940  0.59907711  0.25212522    -0.80400
O1252       O  0.59973024  0.70019292  0.18626159    -0.80500
O1253       O  0.67218352  0.62952775  0.23590598    -0.80400
O1254       O  0.60322375  0.64018650  0.24988962    -0.80400
O1255       O  0.67204813  0.64863729  0.14583005    -0.80400
C1256       C  0.68949369  0.65696576  0.16345744     1.09300
C1257       C  0.61276374  0.66486512  0.24979315     1.09200
C1258       C  0.62220054  0.70468761  0.17412640     1.09300
C1259       C  0.66606124  0.61285866  0.25450301     1.09200
O1260       O  0.66394195  0.57501443  0.20933924    -0.80400
O1261       O  0.59058895  0.65614783  0.15456704    -0.80500
O1262       O  0.63495841  0.60345848  0.14063495    -0.80400
O1263       O  0.57611014  0.61049261  0.20427930    -0.80400
O1264       O  0.57532338  0.65540166  0.20798607    -0.80400
O1265       O  0.67588309  0.59885690  0.16041824    -0.80400
O1266       O  0.61866429  0.57196419  0.20527510    -0.80300
O1267       O  0.62084984  0.65583413  0.12071290    -0.80400
Co1268     Co  0.67213067  0.61518068  0.19856056     1.51500
Co1269     Co  0.61163570  0.66321798  0.19206237     1.51700
Co1270     Co  0.63243666  0.64194119  0.15569108     1.51600
Co1271     Co  0.61143179  0.60663789  0.22547840     1.51500
O1272       O  0.63254357  0.62730249  0.19481675    -1.42300
C1273       C  0.64218763  0.56046416  0.20595906     1.09200
C1274       C  0.59662187  0.66107236  0.12907546     1.09300
C1275       C  0.65883240  0.59221708  0.14137926     1.09300
C1276       C  0.56258835  0.63289356  0.20535002     1.09200
O1277       O  0.68819151  0.88979777  0.20013122    -0.80400
O1278       O  0.73296640  0.83532836  0.12008878    -0.80400
O1279       O  0.64690234  0.83119669  0.14873913    -0.80400
O1280       O  0.74793846  0.90270972  0.14110998    -0.80400
O1281       O  0.68543226  0.81388037  0.13369371    -0.80500
O1282       O  0.72797356  0.87107290  0.16612124    -0.80400
O1283       O  0.75194403  0.86816248  0.09629176    -0.80400
O1284       O  0.65745596  0.86189505  0.18073431    -0.80400
C1285       C  0.67084916  0.87017345  0.20229298     1.09300
C1286       C  0.75314766  0.84416427  0.10694240     1.09200
C1287       C  0.66362382  0.81159176  0.14731637     1.09300
C1288       C  0.74875535  0.88610633  0.16148481     1.09200
O1289       O  0.70738376  0.92839300  0.15870863    -0.80400
O1290       O  0.66009981  0.83694354  0.08249680    -0.80500
O1291       O  0.62531249  0.89502404  0.13953858    -0.80400
O1292       O  0.70777091  0.89761848  0.06819133    -0.80400
O1293       O  0.71130709  0.85232457  0.06675520    -0.80400
O1294       O  0.65665452  0.91546207  0.16267479    -0.80400
O1295       O  0.70316307  0.93250779  0.11386524    -0.80300
O1296       O  0.62994522  0.85628933  0.11004042    -0.80400
Co1297     Co  0.69175048  0.88966710  0.16119132     1.51500
Co1298     Co  0.69685623  0.83816452  0.10279017     1.51700
Co1299     Co  0.65480152  0.86843846  0.13844846     1.51600
Co1300     Co  0.72500365  0.89930808  0.10580898     1.51500
O1301       O  0.69187883  0.87698680  0.12141446    -1.42300
C1302       C  0.70389767  0.94352709  0.13740434     1.09200
C1303       C  0.63547408  0.84410479  0.08804230     1.09300
C1304       C  0.63148940  0.91439905  0.15482075     1.09300
C1305       C  0.70971157  0.87536741  0.05437473     1.09200
O1306       O  0.90433178  0.66707200  0.17375819    -0.80400
O1307       O  0.86744986  0.69105543  0.06972808    -0.80400
O1308       O  0.86014186  0.63086541  0.10957187    -0.80400
O1309       O  0.92368356  0.71576931  0.11394865    -0.80400
O1310       O  0.82987564  0.65731829  0.08976169    -0.80500
O1311       O  0.92214032  0.71550616  0.15926517    -0.80400
O1312       O  0.88583046  0.73175219  0.07264987    -0.80400
O1313       O  0.89930584  0.64749586  0.13400057    -0.80400
C1314       C  0.91179430  0.64891566  0.15648408     1.09300
C1315       C  0.87841283  0.71136893  0.05833574     1.09200
C1316       C  0.84143643  0.63377914  0.09226666     1.09300
C1317       C  0.93564550  0.71318422  0.13692588     1.09200
O1318       O  0.86632891  0.73972985  0.17197993    -0.80400
O1319       O  0.80949181  0.70084459  0.12417240    -0.80500
O1320       O  0.85718023  0.64710476  0.17429838    -0.80400
O1321       O  0.85612727  0.76055203  0.11428522    -0.80400
O1322       O  0.83116864  0.73575599  0.08626263    -0.80400
O1323       O  0.84887817  0.68916211  0.18690977    -0.80400
O1324       O  0.89883028  0.75802551  0.14835639    -0.80300
O1325       O  0.81945182  0.65958848  0.14054380    -0.80400
Co1326     Co  0.88345410  0.70325556  0.16962495     1.51500
Co1327     Co  0.83938426  0.69703782  0.09799643     1.51700
Co1328     Co  0.86151292  0.66081679  0.13614994     1.51600
Co1329     Co  0.88947652  0.73716908  0.11347867     1.51500
O1330       O  0.86909203  0.70128734  0.12876226    -1.42300
C1331       C  0.88310343  0.75896787  0.16883491     1.09200
C1332       C  0.80212881  0.67918325  0.13635588     1.09300
C1333       C  0.84853030  0.66358667  0.19243065     1.09300
C1334       C  0.83509831  0.75791256  0.09933478     1.09200
O1335       O  0.89542400  0.80313410  0.31925253    -0.80400
O1336       O  0.82504391  0.87106159  0.26740532    -0.80400
O1337       O  0.82321988  0.85758674  0.35892211    -0.80400
O1338       O  0.89468796  0.86191688  0.25597993    -0.80400
O1339       O  0.81434244  0.85120440  0.31618357    -0.80500
O1340       O  0.86957413  0.83089291  0.27755907    -0.80400
O1341       O  0.85405844  0.90085951  0.25088541    -0.80400
O1342       O  0.85830545  0.81914674  0.33995914    -0.80400
C1343       C  0.87338285  0.79850692  0.33217107     1.09300
C1344       C  0.83335162  0.88484436  0.24737235     1.09200
C1345       C  0.80621511  0.85056928  0.34040496     1.09300
C1346       C  0.88218265  0.83883212  0.25623898     1.09200
O1347       O  0.92190687  0.84738573  0.29818378    -0.80400
O1348       O  0.82234107  0.90639390  0.34141012    -0.80500
O1349       O  0.87422203  0.84842897  0.38488289    -0.80400
O1350       O  0.87815616  0.93079030  0.29750723    -0.80400
O1351       O  0.83320853  0.92707651  0.29093494    -0.80400
O1352       O  0.90547116  0.84689201  0.35194360    -0.80400
O1353       O  0.92186451  0.89256365  0.30015043    -0.80300
O1354       O  0.86267808  0.90007664  0.36232301    -0.80400
Co1355     Co  0.88480231  0.84043529  0.31387416     1.51500
Co1356     Co  0.82560891  0.88788253  0.30404957     1.51700
Co1357     Co  0.86360294  0.86147994  0.34913981     1.51600
Co1358     Co  0.88629271  0.89569549  0.27871239     1.51500
O1359       O  0.86494724  0.87630770  0.30988318    -1.42300
C1360       C  0.93515556  0.86986298  0.29955056     1.09200
C1361       C  0.83899869  0.91151202  0.36129312     1.09300
C1362       C  0.89869175  0.84286721  0.37749058     1.09300
C1363       C  0.85452106  0.94188145  0.29539452     1.09200
O1364       O  0.15850532  0.40493645  0.32498172    -0.80400
O1365       O  0.21310083  0.33769644  0.42824249    -0.80400
O1366       O  0.14672027  0.37254562  0.40262192    -0.80400
O1367       O  0.21816310  0.42426952  0.38728302    -0.80400
O1368       O  0.16189234  0.32991731  0.40986473    -0.80500
O1369       O  0.18684979  0.42634458  0.35477050    -0.80400
O1370       O  0.21240998  0.38321486  0.42646840    -0.80400
O1371       O  0.12492367  0.38539248  0.34950673    -0.80400
C1372       C  0.13266104  0.40243193  0.33093097     1.09300
C1373       C  0.21099158  0.36100084  0.44022181     1.09200
C1374       C  0.14583597  0.34979761  0.41613802     1.09300
C1375       C  0.20042603  0.43801890  0.37341779     1.09200
O1376       O  0.23018661  0.40675471  0.32671075    -0.80400
O1377       O  0.18236850  0.31021672  0.35764023    -0.80500
O1378       O  0.16177305  0.35362003  0.32349186    -0.80400
O1379       O  0.25488893  0.35043698  0.40055997    -0.80400
O1380       O  0.23482661  0.31803115  0.37633847    -0.80400
O1381       O  0.19977476  0.36829900  0.30677982    -0.80400
O1382       O  0.25665750  0.38616962  0.35701470    -0.80300
O1383       O  0.14181447  0.32937419  0.36287355    -0.80400
Co1384     Co  0.19593977  0.39004662  0.34003375     1.51500
Co1385     Co  0.19829611  0.32609303  0.39114450     1.51700
Co1386     Co  0.15813009  0.36790791  0.36325968     1.51600
Co1387     Co  0.23226997  0.38469088  0.39121854     1.51500
O1388       O  0.19866857  0.36398712  0.37300363    -1.42300
C1389       C  0.25362408  0.39771089  0.33361877     1.09200
C1390       C  0.15647040  0.30879409  0.35560083     1.09300
C1391       C  0.17843232  0.35444576  0.30358267     1.09300
C1392       C  0.25507462  0.32621825  0.39036506     1.09200
O1393       O  0.40641574  0.33261132  0.16020920    -0.80400
O1394       O  0.34745678  0.43461291  0.20446970    -0.80400
O1395       O  0.34761880  0.38391399  0.12009264    -0.80400
O1396       O  0.43115247  0.39277262  0.20603138    -0.80400
O1397       O  0.35202131  0.41633270  0.15209853    -0.80500
O1398       O  0.42883017  0.34719623  0.21007148    -0.80400
O1399       O  0.39205993  0.43395588  0.20198219    -0.80400
O1400       O  0.39928235  0.37219821  0.13885496    -0.80400
C1401       C  0.41036895  0.34832146  0.13934583     1.09300
C1402       C  0.36988280  0.44759225  0.20235630     1.09200
C1403       C  0.34709187  0.40930834  0.12697945     1.09300
C1404       C  0.44288874  0.36927361  0.20650396     1.09200
O1405       O  0.37398278  0.33843418  0.23504139    -0.80400
O1406       O  0.30486790  0.40803785  0.18031555    -0.80500
O1407       O  0.35640829  0.33273185  0.14497676    -0.80400
O1408       O  0.36040430  0.40682686  0.24701380    -0.80400
O1409       O  0.32902812  0.38268531  0.22447147    -0.80400
O1410       O  0.35285718  0.32518212  0.18816402    -0.80400
O1411       O  0.40236428  0.36878243  0.25180093    -0.80300
O1412       O  0.32041975  0.36806362  0.16520286    -0.80400
Co1413     Co  0.38967767  0.33769930  0.19841543     1.51500
Co1414     Co  0.34164663  0.39698829  0.18866362     1.51700
Co1415     Co  0.36162426  0.37331494  0.15457503     1.51600
Co1416     Co  0.39549867  0.39959285  0.22427109     1.51500
O1417       O  0.37718884  0.37664373  0.19346623    -1.42300
C1418       C  0.38691002  0.34795249  0.25512302     1.09200
C1419       C  0.30011910  0.38446865  0.17016103     1.09300
C1420       C  0.34966410  0.31655585  0.16418685     1.09300
C1421       C  0.33662894  0.39523541  0.24606915     1.09200
O1422       O  0.36829341  0.18738567  0.30973861    -0.80400
O1423       O  0.34225906  0.22410512  0.41119174    -0.80400
O1424       O  0.33130162  0.16240475  0.35536269    -0.80400
O1425       O  0.41021638  0.25845591  0.35375816    -0.80400
O1426       O  0.32076811  0.20234385  0.36705458    -0.80500
O1427       O  0.38821015  0.23874991  0.31946247    -0.80400
O1428       O  0.36616160  0.25551176  0.38838110    -0.80400
O1429       O  0.36808527  0.14676437  0.32994258    -0.80400
C1430       C  0.36189023  0.16212356  0.30927861     1.09300
C1431       C  0.34506949  0.24875063  0.40200129     1.09200
C1432       C  0.31327748  0.18066282  0.35567135     1.09300
C1433       C  0.39720748  0.26022437  0.33122493     1.09200
O1434       O  0.43953672  0.21518317  0.34022571    -0.80400
O1435       O  0.32990781  0.16287240  0.41055738    -0.80500
O1436       O  0.40972166  0.15096078  0.37453853    -0.80400
O1437       O  0.39615885  0.22067349  0.42412753    -0.80400
O1438       O  0.38184753  0.17872157  0.41729942    -0.80400
O1439       O  0.41806456  0.16290917  0.33170345    -0.80400
O1440       O  0.43601397  0.21455206  0.38516773    -0.80300
O1441       O  0.35582614  0.13048770  0.38959610    -0.80400
Co1442     Co  0.40204113  0.20124736  0.32738005     1.51500
Co1443     Co  0.35290775  0.18990273  0.38998857     1.51700
Co1444     Co  0.37077017  0.16239444  0.36907346     1.51600
Co1445     Co  0.40089016  0.23453602  0.38619372     1.51500
O1446       O  0.38137004  0.20384354  0.36360343    -1.42300
C1447       C  0.45073422  0.21430891  0.36396677     1.09200
C1448       C  0.33688131  0.13713466  0.40710702     1.09300
C1449       C  0.42181409  0.14651438  0.35191036     1.09300
C1450       C  0.39097862  0.19706015  0.43341175     1.09200
O1451       O  0.17967075  0.09147392  0.33658358    -0.80400
O1452       O  0.07300163  0.14835552  0.29640367    -0.80400
O1453       O  0.12793529  0.15115054  0.37357883    -0.80400
O1454       O  0.11503361  0.06561676  0.29539757    -0.80400
O1455       O  0.09311743  0.14364204  0.34739603    -0.80500
O1456       O  0.16028343  0.06606025  0.29164142    -0.80400
O1457       O  0.07564039  0.10350596  0.29695140    -0.80400
O1458       O  0.14473303  0.10477407  0.36156248    -0.80400
C1459       C  0.16503968  0.08896116  0.35798190     1.09300
C1460       C  0.06124072  0.12506597  0.29760490     1.09200
C1461       C  0.10258859  0.15061644  0.37083228     1.09300
C1462       C  0.13776589  0.05307846  0.29645945     1.09200
O1463       O  0.16911950  0.11958982  0.26128874    -0.80400
O1464       O  0.10168593  0.19114139  0.31994690    -0.80500
O1465       O  0.18573912  0.14430472  0.34952922    -0.80400
O1466       O  0.10199661  0.13451588  0.25196186    -0.80400
O1467       O  0.12393727  0.16734996  0.27494192    -0.80400
O1468       O  0.19159949  0.14272841  0.30573566    -0.80400
O1469       O  0.13979709  0.08933665  0.24773806    -0.80300
O1470       O  0.14491840  0.18141704  0.33227091    -0.80400
Co1471     Co  0.17232415  0.10629415  0.29887427     1.51500
Co1472     Co  0.11130803  0.15440498  0.31112289     1.51700
Co1473     Co  0.14650843  0.13931088  0.34091762     1.51600
Co1474     Co  0.10955361  0.09998587  0.27521645     1.51500
O1475       O  0.13247647  0.11956116  0.30601516    -1.42300
C1476       C  0.16265098  0.10140005  0.24439711     1.09200
C1477       C  0.12534349  0.19910685  0.32756954     1.09300
C1478       C  0.20059464  0.14941095  0.32934026     1.09300
C1479       C  0.11121357  0.15927143  0.25358546     1.09200
O1480       O  0.32131423  0.10530744  0.19357841    -0.80400
O1481       O  0.28204337  0.17443221  0.09643215    -0.80400
O1482       O  0.34928482  0.18419839  0.16706384    -0.80400
O1483       O  0.25304363  0.11550842  0.16142240    -0.80400
O1484       O  0.31497312  0.18857036  0.13718821    -0.80500
O1485       O  0.27704237  0.07811229  0.17055567    -0.80400
O1486       O  0.25692076  0.15864971  0.12959454    -0.80400
O1487       O  0.31019035  0.14926840  0.18819684    -0.80400
C1488       C  0.31632468  0.12905898  0.20391460     1.09300
C1489       C  0.26167853  0.17735268  0.11242306     1.09200
C1490       C  0.33251801  0.19949086  0.15391258     1.09300
C1491       C  0.25569021  0.09319625  0.17424826     1.09200
O1492       O  0.31034172  0.07136326  0.12011277    -0.80400
O1493       O  0.33824102  0.17856974  0.08852272    -0.80500
O1494       O  0.36174306  0.12935385  0.17072761    -0.80400
O1495       O  0.27139234  0.12403558  0.08265364    -0.80400
O1496       O  0.31655124  0.12710650  0.08085801    -0.80400
O1497       O  0.35342643  0.09500008  0.14379435    -0.80400
O1498       O  0.26602685  0.07717373  0.11732779    -0.80300
O1499       O  0.36001439  0.15514690  0.12090370    -0.80400
Co1500     Co  0.31517209  0.08929046  0.15554367     1.51500
Co1501     Co  0.31669239  0.15487692  0.11051053     1.51700
Co1502     Co  0.33151839  0.15199076  0.15368119     1.51600
Co1503     Co  0.26431662  0.11939855  0.12347399     1.51500
O1504       O  0.30401816  0.12526487  0.13675226    -1.42300
C1505       C  0.28713459  0.06156611  0.11470346     1.09200
C1506       C  0.36086442  0.17117573  0.09952435     1.09300
C1507       C  0.36885579  0.10613724  0.16127471     1.09300
C1508       C  0.29359646  0.12431759  0.06877950     1.09200
O1509       O  0.07881639  0.34058932  0.14489867    -0.80400
O1510       O  0.12678108  0.31421840  0.07702421    -0.80400
O1511       O  0.14267820  0.35832009  0.10328994    -0.80400
O1512       O  0.07724961  0.27194582  0.09943544    -0.80400
O1513       O  0.17721745  0.33499654  0.08651639    -0.80500
O1514       O  0.06069182  0.28866870  0.13840815    -0.80400
O1515       O  0.12906264  0.26991102  0.07473118    -0.80400
O1516       O  0.11619838  0.36280130  0.15599955    -0.80400
C1517       C  0.09021982  0.36242289  0.15294918     1.09300
C1518       C  0.12777317  0.29286051  0.06256930     1.09200
C1519       C  0.16361758  0.35721868  0.08665156     1.09300
C1520       C  0.05735164  0.28087141  0.11386922     1.09200
O1521       O  0.09869223  0.26966310  0.18014439    -0.80400
O1522       O  0.18458801  0.32073964  0.13791039    -0.80500
O1523       O  0.15189712  0.31753694  0.17668933    -0.80400
O1524       O  0.15240117  0.25017633  0.12578565    -0.80400
O1525       O  0.17363599  0.28060631  0.09999707    -0.80400
O1526       O  0.11100428  0.32302263  0.19253564    -0.80400
O1527       O  0.10021942  0.24108653  0.14504744    -0.80300
O1528       O  0.17090769  0.36218081  0.14934865    -0.80400
Co1529     Co  0.09001223  0.30515491  0.16138667     1.51500
Co1530     Co  0.15272093  0.31541590  0.10918570     1.51700
Co1531     Co  0.14384107  0.33553752  0.14041882     1.51600
Co1532     Co  0.11529052  0.26191993  0.11300145     1.51500
O1533       O  0.12105575  0.30056146  0.13223926    -1.42300
C1534       C  0.09902193  0.24531238  0.17060309     1.09200
C1535       C  0.19042932  0.34510682  0.14732070     1.09300
C1536       C  0.13657323  0.32132701  0.19680395     1.09300
C1537       C  0.17406381  0.25848807  0.11414060     1.09200
O1538       O  0.65022122  0.31490338  0.19011410    -0.80400
O1539       O  0.67628871  0.37125630  0.22983266    -0.80400
O1540       O  0.68608417  0.35774626  0.16588508    -0.80400
O1541       O  0.60269140  0.36416832  0.25324936    -0.80400
O1542       O  0.70581830  0.39297892  0.18700326    -0.80500
O1543       O  0.63037118  0.33177619  0.23868749    -0.80400
O1544       O  0.64666327  0.39962183  0.24938723    -0.80400
O1545       O  0.64531764  0.32582895  0.14727288    -0.80400
C1546       C  0.65160013  0.30810101  0.16523803     1.09300
C1547       C  0.66830768  0.38434045  0.25096318     1.09200
C1548       C  0.70829483  0.37045072  0.17391043     1.09300
C1549       C  0.61475726  0.34111604  0.25688003     1.09200
O1550       O  0.57658175  0.34271031  0.21324157    -0.80400
O1551       O  0.66114889  0.40630541  0.15461391    -0.80500
O1552       O  0.60468679  0.36657607  0.14325682    -0.80400
O1553       O  0.61835617  0.42694850  0.20182717    -0.80400
O1554       O  0.66295669  0.42517638  0.20706609    -0.80400
O1555       O  0.59674988  0.32690888  0.16440814    -0.80400
O1556       O  0.57635785  0.38788958  0.20596126    -0.80300
O1557       O  0.65639233  0.37472207  0.12174640    -0.80400
Co1558     Co  0.61493570  0.33084859  0.20168426     1.51500
Co1559     Co  0.66745259  0.38618055  0.19279977     1.51700
Co1560     Co  0.64372846  0.36593190  0.15704521     1.51600
Co1561     Co  0.61205466  0.39377578  0.22526460     1.51500
O1562       O  0.63013272  0.36901604  0.19604077    -1.42300
C1563       C  0.56344030  0.36512573  0.20839735     1.09200
C1564       C  0.66173864  0.39943629  0.12880816     1.09300
C1565       C  0.59163845  0.34364085  0.14469243     1.09300
C1566       C  0.64117961  0.43937784  0.20319376     1.09200
O1567       O  0.58748040  0.17323126  0.32717912    -0.80400
O1568       O  0.61669514  0.19991658  0.43154286    -0.80400
O1569       O  0.66618931  0.14064964  0.38280544    -0.80400
O1570       O  0.58233746  0.23895132  0.38318592    -0.80400
O1571       O  0.64076800  0.15344354  0.41600467    -0.80500
O1572       O  0.58147614  0.19382655  0.37811268    -0.80400
O1573       O  0.61838744  0.24424936  0.42847399    -0.80400
O1574       O  0.61327062  0.14716223  0.35481055    -0.80400
C1575       C  0.59268395  0.14986058  0.33784563     1.09300
C1576       C  0.61359969  0.22274456  0.44265968     1.09200
C1577       C  0.65593044  0.13511123  0.40531508     1.09300
C1578       C  0.56896873  0.21636106  0.38230248     1.09200
O1579       O  0.59437488  0.22972094  0.33222337    -0.80400
O1580       O  0.69096416  0.18554200  0.40230190    -0.80500
O1581       O  0.65689322  0.15812941  0.32616520    -0.80400
O1582       O  0.66145241  0.25663149  0.38987777    -0.80400
O1583       O  0.67017624  0.23159276  0.42653919    -0.80400
O1584       O  0.63704320  0.19651006  0.31649336    -0.80400
O1585       O  0.62848703  0.25347457  0.34786594    -0.80300
O1586       O  0.68456867  0.18780604  0.35748435    -0.80400
Co1587     Co  0.61038950  0.19479004  0.34962787     1.51500
Co1588     Co  0.65304857  0.19353570  0.41656771     1.51700
Co1589     Co  0.64885990  0.16996504  0.36230913     1.51600
Co1590     Co  0.62334647  0.24591729  0.38672971     1.51500
O1591       O  0.63679484  0.20629056  0.37912859    -1.42300
C1592       C  0.60836118  0.25177279  0.33183462     1.09200
C1593       C  0.70060218  0.18721460  0.37804762     1.09300
C1594       C  0.65108612  0.17559769  0.30856271     1.09300
C1595       C  0.67498234  0.25277340  0.41149176     1.09200
O1596       O  0.81565298  0.34922008  0.30970790    -0.80400
O1597       O  0.76675717  0.33062322  0.37570066    -0.80400
O1598       O  0.85550364  0.31759319  0.35399809    -0.80400
O1599       O  0.75447725  0.39654951  0.36141906    -0.80400
O1600       O  0.81098726  0.31131997  0.35117569    -0.80500
O1601       O  0.76841631  0.36585014  0.33208961    -0.80400
O1602       O  0.75772604  0.36129733  0.40618874    -0.80400
O1603       O  0.85843656  0.35837751  0.31772817    -0.80400
C1604       C  0.84011163  0.34922866  0.30145940     1.09300
C1605       C  0.75184817  0.33852511  0.39488905     1.09200
C1606       C  0.83490663  0.30278343  0.34681179     1.09300
C1607       C  0.74948510  0.38127193  0.34033962     1.09200
O1608       O  0.79216467  0.42175371  0.34096945    -0.80400
O1609       O  0.84260859  0.31842943  0.40161847    -0.80500
O1610       O  0.86292102  0.40035089  0.36030099    -0.80400
O1611       O  0.80888048  0.38484856  0.42490631    -0.80400
O1612       O  0.79976324  0.34052155  0.42696025    -0.80400
O1613       O  0.83965139  0.40438085  0.32177029    -0.80400
O1614       O  0.80791088  0.42172982  0.38264441    -0.80300
O1615       O  0.86324955  0.35812556  0.39971576    -0.80400
Co1616     Co  0.80419280  0.38315451  0.32908598     1.51500
Co1617     Co  0.80516407  0.32800522  0.38673419     1.51700
Co1618     Co  0.85644712  0.35981323  0.35963643     1.51600
Co1619     Co  0.78512948  0.38975425  0.39174482     1.51500
O1620       O  0.81347682  0.36590260  0.36766852    -1.42300
C1621       C  0.80163023  0.43502153  0.36146625     1.09200
C1622       C  0.86216842  0.33391699  0.40925503     1.09300
C1623       C  0.85932316  0.41235054  0.33736345     1.09300
C1624       C  0.80592481  0.36312045  0.43920498     1.09200
O1625       O  0.65814055  0.09544254  0.15442488    -0.80400
O1626       O  0.71342015  0.15598745  0.06972110    -0.80400
O1627       O  0.64473500  0.13303471  0.09870761    -0.80400
O1628       O  0.70540281  0.07487807  0.11605134    -0.80400
O1629       O  0.66447816  0.17306094  0.08965020    -0.80500
O1630       O  0.71138616  0.07849365  0.15992831    -0.80400
O1631       O  0.70886327  0.11024759  0.07197778    -0.80400
O1632       O  0.62378913  0.12613858  0.15033655    -0.80400
C1633       C  0.63227687  0.10191106  0.15633318     1.09300
C1634       C  0.71083141  0.13245873  0.05814775     1.09200
C1635       C  0.64512159  0.15566233  0.08522539     1.09300
C1636       C  0.70723471  0.06338300  0.13917261     1.09200
O1637       O  0.73045386  0.13428037  0.17024148    -0.80400
O1638       O  0.69260994  0.18679011  0.14214266    -0.80500
O1639       O  0.66758074  0.14493409  0.17888501    -0.80400
O1640       O  0.75498961  0.13636586  0.09591677    -0.80400
O1641       O  0.73996001  0.17009686  0.12142743    -0.80400
O1642       O  0.68908638  0.11000695  0.19891431    -0.80400
O1643       O  0.75224665  0.10532190  0.14302678    -0.80300
O1644       O  0.64944686  0.17587514  0.13834082    -0.80400
Co1645     Co  0.69494540  0.11684078  0.16118112     1.51500
Co1646     Co  0.70262590  0.16993792  0.10710128     1.51700
Co1647     Co  0.65888700  0.13541364  0.13721307     1.51600
Co1648     Co  0.72811800  0.10747170  0.10778724     1.51500
O1649       O  0.69802740  0.13256098  0.12368042    -1.42300
C1650       C  0.75235451  0.12163883  0.16391885     1.09200
C1651       C  0.66780784  0.19316057  0.14500352     1.09300
C1652       C  0.67604800  0.13253091  0.20096356     1.09300
C1653       C  0.75775377  0.16037625  0.10567922     1.09200
O1654       O  0.90351731  0.17590071  0.34028505    -0.80400
O1655       O  0.83860620  0.07715934  0.28685965    -0.80400
O1656       O  0.85901707  0.09652055  0.36412531    -0.80400
O1657       O  0.92919869  0.10237889  0.29249179    -0.80400
O1658       O  0.82378408  0.08787581  0.33852837    -0.80500
O1659       O  0.93028132  0.14056353  0.31525666    -0.80400
O1660       O  0.88306712  0.07113008  0.29177182    -0.80400
O1661       O  0.88961181  0.14447717  0.37028801    -0.80400
C1662       C  0.90463162  0.16511678  0.36441237     1.09300
C1663       C  0.85901127  0.06139032  0.29187705     1.09200
C1664       C  0.83738200  0.08264164  0.36004265     1.09300
C1665       C  0.94253971  0.11978463  0.30632120     1.09200
O1666       O  0.91546205  0.18176762  0.28289597    -0.80400
O1667       O  0.81304966  0.14428634  0.32928749    -0.80500
O1668       O  0.85290989  0.17544142  0.33806048    -0.80400
O1669       O  0.85814347  0.10827832  0.25114362    -0.80400
O1670       O  0.82979392  0.13563621  0.27268251    -0.80400
O1671       O  0.86199843  0.17889062  0.29471853    -0.80400
O1672       O  0.90350637  0.14525045  0.25726827    -0.80300
O1673       O  0.82820101  0.14302828  0.37315785    -0.80400
Co1674     Co  0.89479082  0.15661336  0.30391189     1.51500
Co1675     Co  0.83060167  0.11290933  0.30670038     1.51700
Co1676     Co  0.85677411  0.13456262  0.34794138     1.51600
Co1677     Co  0.89169634  0.10789280  0.27663537     1.51500
O1678       O  0.87323404  0.12337515  0.31316883    -1.42300
C1679       C  0.91296922  0.17046787  0.25938330     1.09200
C1680       C  0.80922345  0.14860969  0.35546161     1.09300
C1681       C  0.85233940  0.18944865  0.31610673     1.09300
C1682       C  0.83659930  0.12330062  0.25084740     1.09200
O1683       O  0.87939231  0.30031268  0.18319185    -0.80400
O1684       O  0.83269764  0.26675444  0.08160609    -0.80400
O1685       O  0.83726746  0.33566594  0.14533693    -0.80400
O1686       O  0.89198856  0.23788342  0.14950047    -0.80400
O1687       O  0.81518736  0.30334779  0.12243436    -0.80500
O1688       O  0.92042246  0.26986092  0.16512121    -0.80400
O1689       O  0.85221149  0.23636259  0.11002438    -0.80400
O1690       O  0.85669151  0.33469948  0.16648750    -0.80400
C1691       C  0.86320064  0.32000716  0.18748923     1.09300
C1692       C  0.83481368  0.24234992  0.09154778     1.09200
C1693       C  0.81432999  0.32321509  0.13939280     1.09300
C1694       C  0.90972454  0.24577185  0.16700597     1.09200
O1695       O  0.92567228  0.30568497  0.11594786    -0.80400
O1696       O  0.82905394  0.32542649  0.07358757    -0.80500
O1697       O  0.89652114  0.36007593  0.14176344    -0.80400
O1698       O  0.88763240  0.25840712  0.07077386    -0.80400
O1699       O  0.87944622  0.30265942  0.07216007    -0.80400
O1700       O  0.92361894  0.33087205  0.16528189    -0.80400
O1701       O  0.92868448  0.26109471  0.11110370    -0.80300
O1702       O  0.85536880  0.35214094  0.10042641    -0.80400
Co1703     Co  0.90040278  0.30286326  0.14835893     1.51500
Co1704     Co  0.84809784  0.30168538  0.09820940     1.51700
Co1705     Co  0.87619259  0.32707352  0.12958096     1.51600
Co1706     Co  0.88908322  0.25076344  0.11130055     1.51500
O1707       O  0.87021895  0.28525484  0.12663795    -1.42300
C1708       C  0.93968245  0.28462193  0.10924946     1.09200
C1709       C  0.83731797  0.34934234  0.08068145     1.09300
C1710       C  0.91716609  0.35567599  0.15800686     1.09300
C1711       C  0.88613755  0.28143518  0.05859982     1.09200
O1712       O  0.78114652  0.03284895  0.52737212    -0.80400
O1713       O  0.77085914  0.93337899  0.47612440    -0.80400
O1714       O  0.75424216  0.97001267  0.55384108    -0.80400
O1715       O  0.74618665  0.02015029  0.43909918    -0.80400
O1716       O  0.78282949  0.96933827  0.51858398    -0.80500
O1717       O  0.77875735  0.02922967  0.46917107    -0.80400
O1718       O  0.76094673  0.97060412  0.45135894    -0.80400
O1719       O  0.75020854  0.02522236  0.55936827    -0.80400
C1720       C  0.77428026  0.03293884  0.55254853     1.09300
C1721       C  0.77485648  0.94794254  0.45467875     1.09200
C1722       C  0.77811548  0.96516353  0.54389199     1.09300
C1723       C  0.77068037  0.02847976  0.44422409     1.09200
O1724       O  0.72367525  0.05312220  0.47181659    -0.80400
O1725       O  0.73140258  0.93888264  0.51982912    -0.80500
O1726       O  0.69574496  0.02636916  0.53529363    -0.80400
O1727       O  0.70732911  0.97507321  0.43316779    -0.80400
O1728       O  0.71684949  0.95024697  0.47023527    -0.80400
O1729       O  0.72709794  0.05815909  0.52652458    -0.80400
O1730       O  0.69405388  0.01842918  0.46887454    -0.80300
O1731       O  0.69825240  0.96791693  0.53029280    -0.80400
Co1732     Co  0.75261542  0.04063317  0.49882156     1.51500
Co1733     Co  0.75139441  0.96364477  0.49316428     1.51700
Co1734     Co  0.72458584  0.99741728  0.54182858     1.51600
Co1735     Co  0.72580991  0.99296974  0.46372424     1.51500
O1736       O  0.73807154  0.00160526  0.50229443    -1.42300
C1737       C  0.69981696  0.04384347  0.46560026     1.09200
C1738       C  0.70691002  0.94319668  0.52837707     1.09300
C1739       C  0.70297752  0.05166503  0.53457385     1.09300
C1740       C  0.70359413  0.95310410  0.44722207     1.09200
C1741       C  0.81599721  0.04884880  0.42842490    -0.12500
C1742       C  0.78967752  0.03824389  0.42159336     0.04500
C1743       C  0.78185469  0.03888748  0.39345518    -0.07800
C1744       C  0.79930855  0.05087126  0.37381473    -0.08500
C1745       C  0.82452545  0.06349261  0.38092085    -0.03100
C1746       C  0.83319448  0.06140671  0.40862830     0.03700
N1747       N  0.85861484  0.07326931  0.41748930     0.66200
H1748       H  0.82296630  0.04849530  0.44961103     0.15100
H1749       H  0.79199464  0.05166884  0.35274413     0.14800
N1750       N  0.75551116  0.02932640  0.38424442     0.73900
O1751       O  0.85840803  0.09667415  0.42893034    -0.39500
O1752       O  0.87971711  0.05807367  0.41966268    -0.39500
O1753       O  0.73881207  0.04660285  0.37401680    -0.40200
O1754       O  0.75266822  0.00414413  0.37819094    -0.40200
C1755       C  0.90933445  0.19794207  0.18595234    -0.12500
C1756       C  0.91678594  0.22586351  0.18957194     0.04500
C1757       C  0.92808492  0.23374800  0.21517010    -0.07800
C1758       C  0.92918847  0.21449871  0.23693623    -0.08500
C1759       C  0.91840414  0.18751873  0.23417813    -0.03100
C1760       C  0.90999637  0.17893386  0.20767665     0.03700
N1761       N  0.90104802  0.15129890  0.20239406     0.66200
H1762       H  0.90172581  0.19084593  0.16620077     0.15100
H1763       H  0.93739093  0.22122777  0.25651960     0.14800
N1764       N  0.93685777  0.26151069  0.22007938     0.73900
O1765       O  0.87559347  0.14640326  0.20039613    -0.39500
O1766       O  0.91804234  0.13398311  0.19296148    -0.39500
O1767       O  0.92055248  0.27843011  0.23125186    -0.40200
O1768       O  0.96214267  0.26730084  0.21866473    -0.40200
C1769       C  0.79536049  0.10184380  0.18613040    -0.12500
C1770       C  0.77689096  0.12408383  0.18296563     0.04500
C1771       C  0.78029761  0.14715127  0.20067717    -0.07800
C1772       C  0.80016988  0.14675023  0.22192526    -0.08500
C1773       C  0.81777521  0.12398691  0.22600680    -0.03100
C1774       C  0.81554590  0.10156777  0.20722266     0.03700
N1775       N  0.83199344  0.07723258  0.21051537     0.66200
H1776       H  0.79322250  0.08380185  0.17309274     0.15100
H1777       H  0.80164362  0.16443177  0.23553456     0.14800
N1778       N  0.76362106  0.17133125  0.19751662     0.73900
O1779       O  0.82221254  0.05688762  0.22339289    -0.39500
O1780       O  0.85238019  0.07351788  0.19498833    -0.39500
O1781       O  0.74567173  0.17678076  0.21535471    -0.40200
O1782       O  0.77095747  0.18993265  0.18090961    -0.40200
C1783       C  0.76954812  0.20468318  0.08432423    -0.12500
C1784       C  0.77836546  0.17902077  0.09494691     0.04500
C1785       C  0.80639382  0.17221337  0.09547807    -0.07800
C1786       C  0.82541645  0.19269126  0.08939517    -0.08500
C1787       C  0.81656177  0.21982044  0.08328226    -0.03100
C1788       C  0.78875222  0.22482649  0.07734379     0.03700
N1789       N  0.77993188  0.25022450  0.06499880     0.66200
H1790       H  0.74775512  0.20916519  0.08192994     0.15100
H1791       H  0.84710367  0.18823438  0.09270685     0.14800
N1792       N  0.81587121  0.14609549  0.10568274     0.73900
O1793       O  0.78436675  0.25435339  0.03981627    -0.39500
O1794       O  0.77193759  0.27001902  0.07980627    -0.39500
O1795       O  0.82682605  0.12905531  0.08941343    -0.40200
O1796       O  0.81855707  0.14257706  0.13125380    -0.40200
C1797       C  0.82754917  0.32478998  0.25749338    -0.12500
C1798       C  0.84651536  0.34103611  0.27245662     0.04500
C1799       C  0.87005250  0.35091246  0.25853406    -0.07800
C1800       C  0.87393625  0.34460084  0.23064870    -0.08500
C1801       C  0.85550829  0.32776400  0.21604497    -0.03100
C1802       C  0.83197599  0.31786437  0.22970332     0.03700
N1803       N  0.81218864  0.30109260  0.21575784     0.66200
H1804       H  0.80918801  0.31716513  0.26749300     0.15100
H1805       H  0.89173282  0.35284079  0.22022109     0.14800
N1806       N  0.88999141  0.36792342  0.27206792     0.73900
O1807       O  0.81594250  0.27526941  0.21469735    -0.39500
O1808       O  0.78835117  0.31071111  0.21140998    -0.39500
O1809       O  0.90970273  0.35663788  0.28493427    -0.40200
O1810       O  0.89150045  0.39324430  0.26593005    -0.40200
C1811       C  0.85643794  0.26804273  0.31554748    -0.12500
C1812       C  0.83793933  0.27426097  0.33656196     0.04500
C1813       C  0.82159217  0.25288519  0.34756927    -0.07800
C1814       C  0.82511271  0.22578349  0.33857972    -0.08500
C1815       C  0.84422981  0.21901988  0.31822167    -0.03100
C1816       C  0.85942930  0.24072367  0.30600988     0.03700
N1817       N  0.87966315  0.23533303  0.28565653     0.66200
H1818       H  0.86872278  0.28439748  0.30660215     0.15100
H1819       H  0.81391159  0.20963870  0.34895724     0.14800
N1820       N  0.80253361  0.25797191  0.36928256     0.73900
O1821       O  0.87233989  0.23493631  0.26073681    -0.39500
O1822       O  0.90463352  0.23953403  0.29162639    -0.39500
O1823       O  0.77741636  0.26166095  0.36347480    -0.40200
O1824       O  0.80932865  0.25206742  0.39365796    -0.40200
C1825       C  0.74601704  0.17104337  0.39492815    -0.12500
C1826       C  0.73040567  0.18353590  0.37383445     0.04500
C1827       C  0.74274544  0.18817489  0.34813754    -0.07800
C1828       C  0.76885127  0.17738318  0.34306504    -0.08500
C1829       C  0.78360882  0.16286436  0.36348455    -0.03100
C1830       C  0.77252712  0.16097237  0.39007109     0.03700
N1831       N  0.78691019  0.14723340  0.41186620     0.66200
H1832       H  0.73710456  0.16761282  0.41499364     0.15100
H1833       H  0.77747770  0.18018720  0.32277186     0.14800
N1834       N  0.72911015  0.20353884  0.32689466     0.73900
O1835       O  0.78247032  0.12188936  0.41619369    -0.39500
O1836       O  0.79842497  0.16151824  0.43031773    -0.39500
O1837       O  0.73368312  0.22913832  0.32477942    -0.40200
O1838       O  0.71886374  0.19081942  0.30668338    -0.40200
C1839       C  0.65053791  0.16545561  0.23127433    -0.12500
C1840       C  0.67136581  0.14530927  0.22826141     0.04500
C1841       C  0.68743862  0.13801148  0.25146571    -0.07800
C1842       C  0.68171099  0.14995424  0.27690415    -0.08500
C1843       C  0.66036026  0.16953343  0.28015853    -0.03100
C1844       C  0.64531349  0.17777388  0.25686896     0.03700
N1845       N  0.62398246  0.19785738  0.25917491     0.66200
H1846       H  0.63811457  0.17162403  0.21371357     0.15100
H1847       H  0.69357261  0.14296767  0.29455965     0.14800
N1848       N  0.70951867  0.11837124  0.24980407     0.73900
O1849       O  0.63041395  0.22282442  0.26312053    -0.39500
O1850       O  0.59970594  0.18995382  0.26379167    -0.39500
O1851       O  0.73409419  0.12682261  0.24995161    -0.40200
O1852       O  0.70478610  0.09310051  0.25426683    -0.40200
C1853       C  0.64986487  0.09996842  0.44276759    -0.12500
C1854       C  0.66308605  0.10843596  0.41862072     0.04500
C1855       C  0.68491188  0.09194625  0.40824148    -0.07800
C1856       C  0.69438975  0.06936839  0.42324189    -0.08500
C1857       C  0.68253738  0.06191061  0.44817305    -0.03100
C1858       C  0.65916361  0.07654752  0.45743678     0.03700
N1859       N  0.64474114  0.06816267  0.48148886     0.66200
H1860       H  0.63258664  0.11179086  0.45052611     0.15100
H1861       H  0.71247641  0.05845693  0.41616504     0.14800
N1862       N  0.69914000  0.09878665  0.38348032     0.73900
O1863       O  0.64049641  0.08561688  0.50025437    -0.39500
O1864       O  0.62971125  0.04693910  0.48023474    -0.39500
O1865       O  0.72223056  0.11066926  0.38477168    -0.40200
O1866       O  0.69091205  0.08895322  0.36087185    -0.40200
C1867       C  0.68546874  0.30273141  0.41426270    -0.12500
C1868       C  0.69474739  0.27526464  0.41852094     0.04500
C1869       C  0.72335909  0.27054907  0.42047388    -0.07800
C1870       C  0.74173636  0.29206550  0.41418945    -0.08500
C1871       C  0.73216318  0.31862185  0.40694996    -0.03100
C1872       C  0.70392530  0.32434702  0.40876240     0.03700
N1873       N  0.69354594  0.35124764  0.40218079     0.66200
H1874       H  0.66354947  0.30694911  0.41280735     0.15100
H1875       H  0.76365994  0.28771599  0.41389457     0.14800
N1876       N  0.73417471  0.24372691  0.42652890     0.73900
O1877       O  0.68813301  0.35735464  0.37751889    -0.39500
O1878       O  0.69424445  0.37009497  0.42009029    -0.39500
O1879       O  0.74753687  0.23113079  0.40826400    -0.40200
O1880       O  0.73762171  0.23685548  0.45133224    -0.40200
C1881       C  0.73734209  0.33086435  0.15721367    -0.12500
C1882       C  0.73612957  0.35785002  0.16797133     0.04500
C1883       C  0.76143085  0.37180479  0.17227321    -0.07800
C1884       C  0.78646547  0.35971716  0.16370249    -0.08500
C1885       C  0.78751989  0.33318474  0.15166672    -0.03100
C1886       C  0.76246152  0.31820130  0.14983377     0.03700
N1887       N  0.76202202  0.28959754  0.14226436     0.66200
H1888       H  0.71852476  0.31902535  0.15507266     0.15100
H1889       H  0.80524288  0.37155420  0.16615234     0.14800
N1890       N  0.76230185  0.39829557  0.18524157     0.73900
O1891       O  0.77437632  0.27227298  0.15740557    -0.39500
O1892       O  0.74347162  0.28108540  0.12608675    -0.39500
O1893       O  0.76740766  0.39967870  0.21066117    -0.40200
O1894       O  0.76448945  0.41977618  0.17067718    -0.40200
C1895       C  0.64677814  0.23738318  0.13256847    -0.12500
C1896       C  0.66131688  0.22164972  0.15194219     0.04500
C1897       C  0.67418531  0.23474757  0.17436894    -0.07800
C1898       C  0.67153182  0.26317057  0.17764064    -0.08500
C1899       C  0.65711689  0.27913165  0.15828853    -0.03100
C1900       C  0.64518352  0.26611430  0.13510828     0.03700
N1901       N  0.63153791  0.28149126  0.11392810     0.66200
H1902       H  0.63801872  0.22751009  0.11452032     0.15100
H1903       H  0.68101983  0.27285015  0.19541776     0.14800
N1904       N  0.69071630  0.21970047  0.19360675     0.73900
O1905       O  0.64578310  0.29219165  0.09513028    -0.39500
O1906       O  0.60620811  0.27747157  0.10968416    -0.39500
O1907       O  0.71638201  0.21877952  0.18988459    -0.40200
O1908       O  0.68156141  0.21577492  0.21746799    -0.40200
C1909       C  0.59326500  0.29748201  0.27008224    -0.12500
C1910       C  0.60642726  0.32187248  0.27849791     0.04500
C1911       C  0.61510154  0.32463023  0.30583325    -0.07800
C1912       C  0.61335030  0.30181646  0.32335031    -0.08500
C1913       C  0.60240169  0.27628121  0.31433395    -0.03100
C1914       C  0.59020854  0.27496019  0.28794182     0.03700
N1915       N  0.57503199  0.25133359  0.27867237     0.66200
H1916       H  0.58585001  0.29575265  0.24909482     0.15100
H1917       H  0.62171463  0.30383742  0.34396055     0.14800
N1918       N  0.62699004  0.34975397  0.31576783     0.73900
O1919       O  0.55369620  0.24437853  0.29153493    -0.39500
O1920       O  0.57762506  0.24329988  0.25415683    -0.39500
O1921       O  0.61123852  0.36856657  0.32449477    -0.40200
O1922       O  0.65201390  0.34994665  0.32292780    -0.40200
C1923       C  0.68951022  0.40639587  0.29365767    -0.12500
C1924       C  0.68549749  0.38284518  0.27693100     0.04500
C1925       C  0.69983138  0.35838720  0.28428646    -0.07800
C1926       C  0.71807549  0.35813245  0.30684558    -0.08500
C1927       C  0.72385802  0.38206984  0.32242293    -0.03100
C1928       C  0.70872948  0.40635438  0.31586147     0.03700
N1929       N  0.71436326  0.43178207  0.32964424     0.66200
H1930       H  0.67899769  0.42551629  0.28840707     0.15100
H1931       H  0.72902918  0.33904536  0.31132752     0.14800
N1932       N  0.69621475  0.33337402  0.26902756     0.73900
O1933       O  0.73172912  0.44819479  0.31952450    -0.39500
O1934       O  0.69755916  0.44066397  0.34724808    -0.39500
O1935       O  0.71398738  0.32654905  0.25145881    -0.40200
O1936       O  0.67949352  0.31542239  0.27756047    -0.40200
C1937       C  0.01477039  0.30836005  0.10578502    -0.12500
C1938       C  0.02856787  0.28281689  0.10326140     0.04500
C1939       C  0.01285438  0.25913061  0.09745870    -0.07800
C1940       C  0.98391039  0.26085747  0.09690939    -0.08500
C1941       C  0.96983760  0.28593000  0.10234603    -0.03100
C1942       C  0.98580856  0.31021354  0.10503794     0.03700
N1943       N  0.97320226  0.33669840  0.10861352     0.66200
H1944       H  0.02658529  0.32689255  0.11002828     0.15100
H1945       H  0.97243652  0.24185818  0.09412375     0.14800
N1946       N  0.02572654  0.23263406  0.09513799     0.73900
O1947       O  0.97494286  0.34849399  0.13165356    -0.39500
O1948       O  0.96704024  0.35089318  0.08767248    -0.39500
O1949       O  0.02668720  0.21682431  0.11577163    -0.40200
O1950       O  0.03068675  0.22294915  0.07162000    -0.40200
C1951       C  0.21517074  0.23799099  0.09133018    -0.12500
C1952       C  0.19929284  0.24106691  0.11512963     0.04500
C1953       C  0.20680661  0.22582781  0.13872557    -0.07800
C1954       C  0.22865237  0.20695790  0.13747465    -0.08500
C1955       C  0.24305607  0.20195626  0.11288968    -0.03100
C1956       C  0.23653157  0.21836814  0.08974199     0.03700
N1957       N  0.24915664  0.21372244  0.06376956     0.66200
H1958       H  0.20995813  0.24976814  0.07319724     0.15100
H1959       H  0.23368007  0.19529230  0.15589107     0.14800
N1960       N  0.19265841  0.22918324  0.16420896     0.73900
O1961       O  0.23487211  0.20305409  0.04481425    -0.39500
O1962       O  0.27008247  0.22772896  0.05747681    -0.39500
O1963       O  0.17761375  0.20985812  0.17280475    -0.40200
O1964       O  0.20151218  0.24666480  0.18126860    -0.40200
C1965       C  0.01707145  0.14173055  0.31726639    -0.12500
C1966       C  0.03095749  0.12265775  0.30078065     0.04500
C1967       C  0.01589207  0.10046776  0.28917745    -0.07800
C1968       C  0.98741276  0.09841778  0.29339963    -0.08500
C1969       C  0.97317259  0.11817705  0.30894499    -0.03100
C1970       C  0.98867304  0.13952370  0.32174625     0.03700
N1971       N  0.97614482  0.15897339  0.33982601     0.66200
H1972       H  0.02839854  0.15830046  0.32712718     0.15100
H1973       H  0.97618236  0.08212596  0.28296540     0.14800
N1974       N  0.02870591  0.08080418  0.27144648     0.73900
O1975       O  0.97552569  0.15340267  0.36512041    -0.39500
O1976       O  0.97300930  0.18372689  0.33208283    -0.39500
O1977       O  0.02779059  0.05547491  0.27760819    -0.40200
O1978       O  0.03393535  0.08765348  0.24701660    -0.40200
C1979       C  0.11091036  0.17391540  0.20386586    -0.12500
C1980       C  0.10505638  0.17984383  0.23144454     0.04500
C1981       C  0.09305562  0.20579141  0.23765427    -0.07800
C1982       C  0.08973975  0.22586836  0.21710649    -0.08500
C1983       C  0.09841358  0.22124048  0.19010949    -0.03100
C1984       C  0.10744982  0.19415752  0.18315240     0.03700
N1985       N  0.11213867  0.18646468  0.15520987     0.66200
H1986       H  0.11849884  0.15359551  0.19845254     0.15100
H1987       H  0.07991276  0.24527328  0.22231966     0.14800
N1988       N  0.08287590  0.21182768  0.26446478     0.73900
O1989       O  0.13642513  0.18358368  0.14661094    -0.39500
O1990       O  0.09244658  0.17678469  0.14119994    -0.39500
O1991       O  0.09343262  0.23150818  0.27785277    -0.40200
O1992       O  0.05915654  0.20348676  0.27088204    -0.40200
C1993       C  0.21064901  0.08527940  0.23689613    -0.12500
C1994       C  0.18451075  0.09125006  0.22548079     0.04500
C1995       C  0.18169061  0.09131249  0.19670578    -0.07800
C1996       C  0.20524153  0.08859662  0.18019423    -0.08500
C1997       C  0.23182770  0.08531123  0.19170732    -0.03100
C1998       C  0.23409770  0.08199475  0.22034860     0.03700
N1999       N  0.26026149  0.07791591  0.23324194     0.66200
H2000       H  0.21318028  0.08465889  0.25904048     0.15100
H2001       H  0.20298170  0.09111690  0.15815626     0.14800
N2002       N  0.15571609  0.09683337  0.18389109     0.73900
O2003       O  0.27165408  0.09806836  0.24515552    -0.39500
O2004       O  0.26776843  0.05361402  0.23924650    -0.39500
O2005       O  0.15129390  0.12044799  0.17367982    -0.40200
O2006       O  0.14094333  0.07676109  0.17633070    -0.40200
C2007       C  0.49222890  0.20521198  0.39310377    -0.12500
C2008       C  0.48124998  0.21454617  0.36782367     0.04500
C2009       C  0.49960320  0.22550241  0.34818451    -0.07800
C2010       C  0.52776978  0.22746707  0.35453184    -0.08500
C2011       C  0.53865372  0.21713856  0.37921382    -0.03100
C2012       C  0.52063701  0.20576017  0.39853872     0.03700
N2013       N  0.53073331  0.19498517  0.42392057     0.66200
H2014       H  0.47873451  0.19674035  0.40862112     0.15100
H2015       H  0.54151625  0.23618409  0.33955877     0.14800
N2016       N  0.49037055  0.23444103  0.32165560     0.73900
O2017       O  0.52786051  0.20917534  0.44546327    -0.39500
O2018       O  0.53559003  0.16938899  0.42585680    -0.39500
O2019       O  0.49520743  0.25891958  0.31412187    -0.40200
O2020       O  0.48499608  0.21647952  0.30361325    -0.40200
C2021       C  0.26238718  0.19012315  0.35683052    -0.12500
C2022       C  0.28442366  0.17442449  0.34634709     0.04500
C2023       C  0.27784966  0.15053505  0.33034387    -0.07800
C2024       C  0.25048422  0.14542985  0.32252005    -0.08500
C2025       C  0.22872687  0.16058900  0.33351066    -0.03100
C2026       C  0.23478371  0.18245666  0.35187157     0.03700
N2027       N  0.21341362  0.19571920  0.36714344     0.66200
H2028       H  0.26655850  0.20717560  0.37067011     0.15100
H2029       H  0.24591435  0.12723936  0.31028293     0.14800
N2030       N  0.29760112  0.12923522  0.32449432     0.73900
O2031       O  0.21156709  0.19129325  0.39261869    -0.39500
O2032       O  0.20004316  0.21548777  0.35658594    -0.39500
O2033       O  0.30729086  0.11520988  0.34423434    -0.40200
O2034       O  0.29736358  0.11834929  0.30094269    -0.40200
C2035       C  0.35159503  0.12497056  0.27437124    -0.12500
C2036       C  0.34662776  0.15168029  0.28460130     0.04500
C2037       C  0.32769496  0.16890213  0.27011826    -0.07800
C2038       C  0.31626266  0.16015237  0.24502542    -0.08500
C2039       C  0.32286921  0.13435903  0.23363864    -0.03100
C2040       C  0.33945197  0.11598567  0.24953019     0.03700
N2041       N  0.34472136  0.08833938  0.24049917     0.66200
H2042       H  0.36519284  0.11108280  0.28550558     0.15100
H2043       H  0.30271978  0.17411426  0.23390789     0.14800
N2044       N  0.31924390  0.19518153  0.28081011     0.73900
O2045       O  0.36846046  0.08147118  0.23267957    -0.39500
O2046       O  0.32587415  0.07044623  0.24119437    -0.39500
O2047       O  0.33429453  0.21611293  0.27726986    -0.40200
O2048       O  0.29437804  0.19872244  0.28739319    -0.40200
C2049       C  0.48741243  0.34406577  0.21514320    -0.12500
C2050       C  0.47369733  0.36761961  0.20487937     0.04500
C2051       C  0.48990966  0.38964397  0.19470070    -0.07800
C2052       C  0.51880223  0.38808930  0.19574300    -0.08500
C2053       C  0.53255948  0.36496656  0.20683263    -0.03100
C2054       C  0.51635397  0.34261279  0.21650789     0.03700
N2055       N  0.52865824  0.31897454  0.22942741     0.66200
H2056       H  0.47560728  0.32697055  0.22331202     0.15100
H2057       H  0.53055112  0.40533585  0.18780439     0.14800
N2058       N  0.47751520  0.41379586  0.18295787     0.73900
O2059       O  0.53309106  0.31951695  0.25498386    -0.39500
O2060       O  0.52833151  0.29594098  0.21724098    -0.39500
O2061       O  0.47776928  0.43613362  0.19635257    -0.40200
O2062       O  0.47253172  0.41442741  0.15748989    -0.40200
C2063       C  0.34058315  0.27061198  0.18417600    -0.12500
C2064       C  0.34131419  0.28734023  0.16045999     0.04500
C2065       C  0.33611325  0.27504566  0.13471189    -0.07800
C2066       C  0.33205230  0.24633446  0.13311027    -0.08500
C2067       C  0.33321708  0.22970156  0.15683933    -0.03100
C2068       C  0.33668092  0.24218268  0.18255891     0.03700
N2069       N  0.33533518  0.22645203  0.20734538     0.66200
H2070       H  0.34393371  0.27938951  0.20434998     0.15100
H2071       H  0.32898147  0.23687523  0.11313834     0.14800
N2072       N  0.33495632  0.29119890  0.11015499     0.73900
O2073       O  0.35735939  0.21983162  0.21965093    -0.39500
O2074       O  0.31281453  0.22547075  0.22009645    -0.39500
O2075       O  0.35590915  0.29269793  0.09503383    -0.40200
O2076       O  0.31185705  0.29903202  0.10091157    -0.40200
C2077       C  0.26690704  0.34594183  0.16426132    -0.12500
C2078       C  0.27177839  0.37463347  0.16538241     0.04500
C2079       C  0.24956181  0.39306832  0.16139802    -0.07800
C2080       C  0.22327304  0.38268526  0.15658185    -0.08500
C2081       C  0.21841059  0.35409126  0.15504965    -0.03100
C2082       C  0.24047346  0.33563508  0.15913288     0.03700
N2083       N  0.23607905  0.30651574  0.15977224     0.66200
H2084       H  0.28362331  0.33137368  0.16766121     0.15100
H2085       H  0.20671382  0.39736912  0.15291864     0.14800
N2086       N  0.25346564  0.42231841  0.15997400     0.73900
O2087       O  0.24172938  0.29179911  0.13914893    -0.39500
O2088       O  0.22552689  0.29568164  0.18075988    -0.39500
O2089       O  0.25597117  0.43346660  0.13667767    -0.40200
O2090       O  0.24647399  0.43712227  0.18011188    -0.40200
C2091       C  0.40981243  0.32989564  0.29730697    -0.12500
C2092       C  0.38606075  0.33182040  0.28089536     0.04500
C2093       C  0.36397468  0.31344700  0.28591855    -0.07800
C2094       C  0.36770786  0.29123212  0.30382148    -0.08500
C2095       C  0.39270240  0.28729278  0.31776019    -0.03100
C2096       C  0.41318483  0.30797897  0.31601627     0.03700
N2097       N  0.43840209  0.30596108  0.33116863     0.66200
H2098       H  0.42670820  0.34413323  0.29413598     0.15100
H2099       H  0.35125971  0.27625432  0.30595607     0.14800
N2100       N  0.33810212  0.31603399  0.27186791     0.73900
O2101       O  0.46075410  0.30395046  0.31824520    -0.39500
O2102       O  0.43895212  0.31411430  0.35578184    -0.39500
O2103       O  0.33249716  0.29954901  0.25255633    -0.40200
O2104       O  0.31865641  0.32871495  0.28350291    -0.40200
C2105       C  0.14580742  0.32714330  0.27446340    -0.12500
C2106       C  0.17063695  0.34201499  0.27657026     0.04500
C2107       C  0.18545060  0.34739486  0.25220271    -0.07800
C2108       C  0.17463833  0.33926791  0.22663702    -0.08500
C2109       C  0.14891686  0.32614159  0.22450885    -0.03100
C2110       C  0.13497564  0.31934057  0.24884087     0.03700
N2111       N  0.11058579  0.30307169  0.24789075     0.66200
H2112       H  0.13428316  0.32205425  0.29276541     0.15100
H2113       H  0.18583590  0.34463258  0.20822344     0.14800
N2114       N  0.21042382  0.36294002  0.25268980     0.73900
O2115       O  0.11247216  0.27747216  0.24343157    -0.39500
O2116       O  0.08723896  0.31420455  0.25080406    -0.39500
O2117       O  0.23316642  0.35073269  0.24926849    -0.40200
O2118       O  0.20930769  0.38899580  0.25126057    -0.40200
C2119       C  0.15945418  0.26877854  0.32462002    -0.12500
C2120       C  0.14448624  0.28318596  0.34467888     0.04500
C2121       C  0.12095087  0.27090726  0.35625457    -0.07800
C2122       C  0.11420080  0.24368064  0.34927322    -0.08500
C2123       C  0.13062838  0.22863590  0.33099729    -0.03100
C2124       C  0.15264746  0.24167988  0.31758873     0.03700
N2125       N  0.16759493  0.22808704  0.29620555     0.66200
H2126       H  0.17707395  0.27836172  0.31492480     0.15100
H2127       H  0.09699540  0.23373153  0.35934354     0.14800
N2128       N  0.10527788  0.28468597  0.37690740     0.73900
O2129       O  0.19065043  0.21710417  0.30147040    -0.39500
O2130       O  0.16112948  0.23292185  0.27151185    -0.39500
O2131       O  0.08230923  0.29529280  0.37055685    -0.40200
O2132       O  0.11101881  0.28048896  0.40188881    -0.40200
C2133       C  0.29525131  0.26014150  0.40634242    -0.12500
C2134       C  0.32253807  0.26944799  0.40482630     0.04500
C2135       C  0.32730354  0.29822378  0.40188637    -0.07800
C2136       C  0.30504273  0.31651023  0.39838608    -0.08500
C2137       C  0.27794631  0.30672133  0.39686742    -0.03100
C2138       C  0.27306470  0.27840253  0.40237518     0.03700
N2139       N  0.24569216  0.26795538  0.40489179     0.66200
H2140       H  0.29102205  0.23832499  0.40923505     0.15100
H2141       H  0.30904849  0.33842003  0.39618188     0.14800
N2142       N  0.35459878  0.30926696  0.40229384     0.73900
O2143       O  0.23349181  0.25856037  0.38395050    -0.39500
O2144       O  0.23649033  0.26237779  0.42843355    -0.39500
O2145       O  0.36539617  0.31726396  0.38016040    -0.40200
O2146       O  0.36527650  0.31635318  0.42491292    -0.40200
C2147       C  0.26999626  0.40801805  0.28593580    -0.12500
C2148       C  0.27664923  0.39929252  0.31278407     0.04500
C2149       C  0.30423853  0.39067881  0.31777264    -0.07800
C2150       C  0.32386344  0.39061711  0.29630037    -0.08500
C2151       C  0.31653545  0.39810009  0.26930246    -0.03100
C2152       C  0.28920540  0.40717455  0.26450342     0.03700
N2153       N  0.28033521  0.41570436  0.23781627     0.66200
H2154       H  0.24929807  0.41499244  0.28108806     0.15100
H2155       H  0.34465158  0.38346568  0.30054675     0.14800
N2156       N  0.31259023  0.38083681  0.34414667     0.73900
O2157       O  0.26475677  0.39989980  0.22423283    -0.39500
O2158       O  0.28128127  0.44104842  0.23162878    -0.39500
O2159       O  0.31677770  0.35527119  0.34741228    -0.40200
O2160       O  0.32215606  0.39769612  0.36150728    -0.40200
C2161       C  0.87191025  0.98678908  0.31307292    -0.12500
C2162       C  0.85249774  0.97256604  0.29693958     0.04500
C2163       C  0.83306364  0.98815307  0.28155252    -0.07800
C2164       C  0.83450504  0.01718512  0.28132184    -0.08500
C2165       C  0.85522968  0.03118176  0.29587030    -0.03100
C2166       C  0.87327195  0.01571814  0.31285695     0.03700
N2167       N  0.89258916  0.02911070  0.33066223     0.66200
H2168       H  0.88637926  0.97533998  0.32582411     0.15100
H2169       H  0.82008825  0.02871066  0.26865494     0.14800
N2170       N  0.81337059  0.97501435  0.26404791     0.73900
O2171       O  0.88549991  0.03514492  0.35482484    -0.39500
O2172       O  0.91779039  0.02938496  0.32447060    -0.39500
O2173       O  0.78912677  0.97154354  0.27256042    -0.40200
O2174       O  0.81784637  0.97430697  0.23856577    -0.40200
C2175       C  0.83328895  0.91470403  0.41214748    -0.12500
C2176       C  0.82762318  0.92569158  0.38593131     0.04500
C2177       C  0.80633246  0.94540812  0.38339475    -0.07800
C2178       C  0.79009147  0.95207993  0.40614459    -0.08500
C2179       C  0.79448218  0.94004715  0.43216122    -0.03100
C2180       C  0.81710389  0.92170898  0.43511057     0.03700
N2181       N  0.82404488  0.90970880  0.46096737     0.66200
H2182       H  0.84944577  0.89934148  0.41462657     0.15100
H2183       H  0.77322802  0.96633471  0.40316521     0.14800
N2184       N  0.80066508  0.95864325  0.35768881     0.73900
O2185       O  0.82010415  0.88413186  0.46434179    -0.39500
O2186       O  0.84132593  0.92194418  0.47612951    -0.39500
O2187       O  0.77907879  0.95252094  0.34446775    -0.40200
O2188       O  0.81384767  0.98014685  0.35129939    -0.40200
C2189       C  0.88651578  0.80812004  0.18414596    -0.12500
C2190       C  0.88618712  0.77985159  0.19056645     0.04500
C2191       C  0.88722213  0.77151238  0.21827746    -0.07800
C2192       C  0.88566906  0.79119838  0.23904349    -0.08500
C2193       C  0.88455953  0.81950658  0.23290794    -0.03100
C2194       C  0.88619882  0.82808475  0.20513723     0.03700
N2195       N  0.88614924  0.85671699  0.19777679     0.66200
H2196       H  0.88623134  0.81469931  0.16285317     0.15100
H2197       H  0.88601901  0.78422662  0.26022789     0.14800
N2198       N  0.89176976  0.74322434  0.22565934     0.73900
O2199       O  0.90885062  0.86912786  0.19548651    -0.39500
O2200       O  0.86493275  0.86705615  0.18666117    -0.39500
O2201       O  0.91614682  0.73472187  0.22919263    -0.40200
O2202       O  0.87218790  0.72925997  0.23523923    -0.40200
C2203       C  0.71182657  0.98789379  0.16283286    -0.12500
C2204       C  0.70197399  0.97415559  0.13933743     0.04500
C2205       C  0.69174168  0.99020388  0.11715192    -0.07800
C2206       C  0.69302478  0.01900084  0.11823360    -0.08500
C2207       C  0.70436601  0.03280823  0.14098927    -0.03100
C2208       C  0.71332174  0.01692482  0.16379059     0.03700
N2209       N  0.72517622  0.02966886  0.18751569     0.66200
H2210       H  0.71903413  0.97608602  0.18034318     0.15100
H2211       H  0.68525975  0.03062819  0.10075378     0.14800
N2212       N  0.67960989  0.97773376  0.09335435     0.73900
O2213       O  0.71039232  0.03366005  0.20837092    -0.39500
O2214       O  0.75106348  0.03059281  0.18995875    -0.39500
O2215       O  0.65378299  0.97501570  0.09201782    -0.40200
O2216       O  0.69371056  0.97509565  0.07181722    -0.40200
C2217       C  0.76791717  0.79790613  0.09158878    -0.12500
C2218       C  0.77553383  0.82424454  0.10112924     0.04500
C2219       C  0.80332104  0.82930419  0.10762654    -0.07800
C2220       C  0.82263387  0.80766820  0.10604281    -0.08500
C2221       C  0.81483745  0.78096393  0.09745050    -0.03100
C2222       C  0.78718716  0.77646960  0.08932201     0.03700
N2223       N  0.77787912  0.74997144  0.08011386     0.66200
H2224       H  0.74655272  0.79372552  0.08644185     0.15100
H2225       H  0.84376028  0.81170257  0.11214505     0.14800
N2226       N  0.81198940  0.85571270  0.11742278     0.73900
O2227       O  0.76623328  0.73387207  0.09679911    -0.39500
O2228       O  0.77607340  0.74522144  0.05467916    -0.39500
O2229       O  0.81837634  0.85845313  0.14242299    -0.40200
O2230       O  0.81981608  0.87367259  0.10037913    -0.40200
C2231       C  0.78160017  0.86065399  0.19273441    -0.12500
C2232       C  0.77288465  0.88578334  0.18104032     0.04500
C2233       C  0.78684856  0.91020802  0.18913192    -0.07800
C2234       C  0.80812232  0.90916523  0.20904804    -0.08500
C2235       C  0.81595927  0.88424894  0.22168191    -0.03100
C2236       C  0.80312489  0.85956620  0.21232560     0.03700
N2237       N  0.81308276  0.83297876  0.22074981     0.66200
H2238       H  0.77186698  0.84154039  0.18631312     0.15100
H2239       H  0.81753036  0.92823049  0.21577145     0.14800
N2240       N  0.77780732  0.93667686  0.17962200     0.73900
O2241       O  0.80385413  0.82203944  0.24228438    -0.39500
O2242       O  0.82456497  0.81770137  0.20319271    -0.39500
O2243       O  0.79050454  0.94823634  0.16023839    -0.40200
O2244       O  0.76258257  0.95109449  0.19492126    -0.40200
C2245       C  0.62287354  0.51545062  0.18930700    -0.12500
C2246       C  0.64365582  0.52948547  0.20395696     0.04500
C2247       C  0.66436075  0.51339376  0.21709905    -0.07800
C2248       C  0.66354816  0.48429409  0.21578937    -0.08500
C2249       C  0.64223310  0.47033041  0.20198654    -0.03100
C2250       C  0.62198231  0.48637308  0.18817131     0.03700
N2251       N  0.60093118  0.47360223  0.17195349     0.66200
H2252       H  0.60705332  0.52716615  0.17855633     0.15100
H2253       H  0.67922479  0.47250831  0.22667219     0.14800
N2254       N  0.68545033  0.52591820  0.23340346     0.73900
O2255       O  0.57710913  0.47085448  0.18179638    -0.39500
O2256       O  0.60425138  0.47134809  0.14636008    -0.39500
O2257       O  0.68005627  0.53285995  0.25777548    -0.40200
O2258       O  0.71027752  0.52262153  0.22655676    -0.40200
C2259       C  0.66102133  0.73569259  0.16368073    -0.12500
C2260       C  0.63299641  0.73300683  0.17057592     0.04500
C2261       C  0.61694886  0.75731562  0.17412194    -0.07800
C2262       C  0.62887963  0.78289161  0.16942457    -0.08500
C2263       C  0.65599026  0.78524579  0.16010781    -0.03100
C2264       C  0.67276528  0.76152075  0.15894957     0.03700
N2265       N  0.70151676  0.76319588  0.15287223     0.66200
H2266       H  0.67396368  0.71758020  0.16139211     0.15100
H2267       H  0.61569884  0.80098678  0.17074596     0.14800
N2268       N  0.58805010  0.75703436  0.17991291     0.73900
O2269       O  0.71849239  0.76823963  0.17196591    -0.39500
O2270       O  0.71025744  0.75483256  0.12997145    -0.39500
O2271       O  0.57859414  0.77366766  0.19753591    -0.40200
O2272       O  0.57178479  0.74764797  0.16204295    -0.40200
C2273       C  0.72684180  0.66019073  0.12962742    -0.12500
C2274       C  0.71653020  0.66814514  0.15520738     0.04500
C2275       C  0.73410878  0.68234764  0.17379954    -0.07800
C2276       C  0.76181001  0.68674810  0.16682462    -0.08500
C2277       C  0.77266080  0.67582412  0.14261924    -0.03100
C2278       C  0.75468025  0.66342595  0.12345643     0.03700
N2279       N  0.76462337  0.65218634  0.09834128     0.66200
H2280       H  0.71379333  0.64930452  0.11508700     0.15100
H2281       H  0.77502260  0.69856695  0.18022336     0.14800
N2282       N  0.72449489  0.69147843  0.20006049     0.73900
O2283       O  0.76914381  0.62649985  0.09720489    -0.39500
O2284       O  0.76064239  0.66545224  0.07631653    -0.39500
O2285       O  0.73333794  0.68012215  0.22173820    -0.40200
O2286       O  0.70671728  0.71047785  0.20170875    -0.40200
C2287       C  0.73138982  0.83257309  0.32923898    -0.12500
C2288       C  0.71865332  0.84661404  0.35078458     0.04500
C2289       C  0.73509529  0.86132611  0.36972147    -0.07800
C2290       C  0.76386981  0.86141801  0.36684919    -0.08500
C2291       C  0.77652927  0.84690122  0.34536326    -0.03100
C2292       C  0.75978864  0.83257593  0.32625478     0.03700
N2293       N  0.77098453  0.81777464  0.30351056     0.66200
H2294       H  0.71922353  0.81998743  0.31529789     0.15100
H2295       H  0.77628587  0.87312753  0.38130600     0.14800
N2296       N  0.72326528  0.87493483  0.39278163     0.73900
O2297       O  0.77865057  0.79302252  0.30690690    -0.39500
O2298       O  0.76467093  0.82581944  0.27963417    -0.39500
O2299       O  0.72170143  0.86199531  0.41522657    -0.40200
O2300       O  0.72275916  0.90101841  0.39305102    -0.40200
C2301       C  0.67848545  0.84542373  0.27666164    -0.12500
C2302       C  0.65934329  0.82369299  0.27786684     0.04500
C2303       C  0.64543325  0.81614553  0.25358877    -0.07800
C2304       C  0.64891252  0.83190214  0.22952751    -0.08500
C2305       C  0.66710062  0.85472096  0.22871244    -0.03100
C2306       C  0.68289131  0.86045126  0.25250836     0.03700
N2307       N  0.70300753  0.88195029  0.25296383     0.66200
H2308       H  0.68883150  0.85222627  0.29519264     0.15100
H2309       H  0.63718227  0.82620470  0.21142924     0.14800
N2310       N  0.62655965  0.79354268  0.25354300     0.73900
O2311       O  0.69604540  0.90597783  0.26036494    -0.39500
O2312       O  0.72824602  0.87568710  0.25188871    -0.39500
O2313       O  0.60096209  0.79817446  0.25411211    -0.40200
O2314       O  0.63550497  0.76935328  0.25775438    -0.40200
C2315       C  0.65513257  0.90413096  0.40626410    -0.12500
C2316       C  0.65473971  0.88063675  0.42356710     0.04500
C2317       C  0.66840970  0.88247577  0.44904848    -0.07800
C2318       C  0.68252601  0.90670783  0.45647862    -0.08500
C2319       C  0.68463858  0.92971817  0.43865539    -0.03100
C2320       C  0.67005501  0.92834965  0.41333992     0.03700
N2321       N  0.67195981  0.95015694  0.39358485     0.66200
H2322       H  0.64581283  0.90282673  0.38603084     0.15100
H2323       H  0.69320894  0.90671713  0.47604999     0.14800
N2324       N  0.66967075  0.85914071  0.46702075     0.73900
O2325       O  0.69085307  0.94947796  0.37590380    -0.39500
O2326       O  0.65170840  0.96621613  0.38996172    -0.39500
O2327       O  0.68978410  0.84261390  0.46550458    -0.40200
O2328       O  0.65405088  0.85822597  0.48760439    -0.40200
C2329       C  0.58866222  0.72968098  0.28825614    -0.12500
C2330       C  0.59621615  0.72406298  0.31535790     0.04500
C2331       C  0.60585374  0.69673312  0.32150263    -0.07800
C2332       C  0.61079108  0.67749643  0.30019674    -0.08500
C2333       C  0.60576289  0.68447556  0.27268506    -0.03100
C2334       C  0.59298663  0.71026110  0.26734548     0.03700
N2335       N  0.58629467  0.71837889  0.24021918     0.66200
H2336       H  0.58060534  0.74990863  0.28279255     0.15100
H2337       H  0.61909454  0.65724271  0.30519047     0.14800
N2338       N  0.61040684  0.68782802  0.34916000     0.73900
O2339       O  0.56136012  0.71856112  0.23268468    -0.39500
O2340       O  0.60311088  0.73405279  0.22843828    -0.39500
O2341       O  0.59043613  0.67811942  0.36250342    -0.40200
O2342       O  0.63462806  0.68251715  0.35712637    -0.40200
C2343       C  0.81221382  0.50960536  0.38528203    -0.12500
C2344       C  0.79916214  0.52454484  0.36417359     0.04500
C2345       C  0.78860951  0.50983676  0.34123963    -0.07800
C2346       C  0.79050918  0.48089637  0.34037064    -0.08500
C2347       C  0.80295469  0.46585815  0.36177698    -0.03100
C2348       C  0.81469897  0.48071911  0.38407322     0.03700
N2349       N  0.82992199  0.46701821  0.40536509     0.66200
H2350       H  0.82126905  0.52047732  0.40257289     0.15100
H2351       H  0.78164873  0.47013108  0.32294838     0.14800
N2352       N  0.77473646  0.52371554  0.31915530     0.73900
O2353       O  0.85551114  0.46334168  0.40257537    -0.39500
O2354       O  0.81929044  0.46414778  0.42877556    -0.39500
O2355       O  0.78626429  0.52541945  0.29605953    -0.40200
O2356       O  0.74915912  0.52811402  0.32079083    -0.40200
C2357       C  0.82535204  0.65776975  0.26712172    -0.12500
C2358       C  0.83573941  0.63157513  0.27378589     0.04500
C2359       C  0.84912331  0.61582425  0.25363591    -0.07800
C2360       C  0.85222310  0.62658523  0.22726462    -0.08500
C2361       C  0.84180555  0.65287114  0.22017734    -0.03100
C2362       C  0.82780711  0.66840493  0.24047185     0.03700
N2363       N  0.81318335  0.69323527  0.23395126     0.66200
H2364       H  0.81418310  0.66955703  0.28241232     0.15100
H2365       H  0.86352723  0.61436825  0.21242756     0.14800
N2366       N  0.86104628  0.58950159  0.25998487     0.73900
O2367       O  0.78847439  0.69088616  0.22635266    -0.39500
O2368       O  0.82037379  0.71551886  0.24533634    -0.39500
O2369       O  0.84882669  0.56779282  0.25235321    -0.40200
O2370       O  0.88624235  0.58822842  0.26643851    -0.40200
C2371       C  0.83273863  0.73626226  0.35695670    -0.12500
C2372       C  0.84838372  0.71430433  0.34662230     0.04500
C2373       C  0.87217904  0.72000380  0.33126725    -0.07800
C2374       C  0.87980322  0.74754391  0.32651354    -0.08500
C2375       C  0.86442291  0.76968028  0.33743993    -0.03100
C2376       C  0.84070634  0.76364784  0.35310691     0.03700
N2377       N  0.82508968  0.78472643  0.36655936     0.66200
H2378       H  0.81476912  0.73212890  0.36941926     0.15100
H2379       H  0.89796848  0.75153325  0.31432798     0.14800
N2380       N  0.88839630  0.69820250  0.31982420     0.73900
O2381       O  0.80017381  0.78822265  0.35986695    -0.39500
O2382       O  0.83335111  0.79361464  0.38953718    -0.39500
O2383       O  0.88414380  0.69085562  0.29529256    -0.40200
O2384       O  0.91040960  0.69090236  0.33176543    -0.40200
C2385       C  0.73614599  0.60713307  0.28880652    -0.12500
C2386       C  0.72994741  0.60786313  0.31692622     0.04500
C2387       C  0.70177208  0.60685674  0.32464397    -0.07800
C2388       C  0.68075801  0.60743216  0.30430745    -0.08500
C2389       C  0.68728757  0.60775812  0.27627662    -0.03100
C2390       C  0.71535647  0.60629521  0.26874443     0.03700
N2391       N  0.72303932  0.60302083  0.24059263     0.66200
H2392       H  0.75745009  0.60657116  0.28225242     0.15100
H2393       H  0.65935698  0.60824504  0.31046388     0.14800
N2394       N  0.69398130  0.60600086  0.35286880     0.73900
O2395       O  0.73491060  0.62239409  0.22803664    -0.39500
O2396       O  0.72043923  0.57979526  0.22910548    -0.39500
O2397       O  0.67955380  0.62542883  0.36248281    -0.40200
O2398       O  0.69473824  0.58314280  0.36540941    -0.40200
C2399       C  0.71533966  0.68473815  0.36065725    -0.12500
C2400       C  0.71896381  0.66867319  0.38444588     0.04500
C2401       C  0.70038103  0.67212801  0.40637847    -0.07800
C2402       C  0.68184316  0.69452607  0.40591004    -0.08500
C2403       C  0.68124429  0.71296776  0.38359697    -0.03100
C2404       C  0.69688450  0.70680398  0.36006910     0.03700
N2405       N  0.69507779  0.72332335  0.33572741     0.66200
H2406       H  0.72846120  0.68146037  0.34299626     0.15100
H2407       H  0.66898050  0.69833234  0.42363128     0.14800
N2408       N  0.70062826  0.65392457  0.42951494     0.73900
O2409       O  0.71288950  0.74182065  0.33162250    -0.39500
O2410       O  0.68068975  0.71482661  0.31577771    -0.39500
O2411       O  0.70497970  0.66367050  0.45315624    -0.40200
O2412       O  0.68917921  0.63061796  0.42732373    -0.40200
C2413       C  0.31092685  0.01603860  0.10895485    -0.12500
C2414       C  0.28579518  0.03088507  0.11008661     0.04500
C2415       C  0.26120531  0.01551623  0.11150738    -0.07800
C2416       C  0.26237182  0.98649360  0.11391490    -0.08500
C2417       C  0.28772058  0.97194181  0.11543135    -0.03100
C2418       C  0.31215440  0.98717995  0.11213842     0.03700
N2419       N  0.33853601  0.97403217  0.11320041     0.66200
H2420       H  0.33021030  0.02704778  0.10710766     0.15100
H2421       H  0.24308880  0.97543507  0.11576407     0.14800
N2422       N  0.23491380  0.02890923  0.11166383     0.73900
O2423       O  0.35097838  0.96888095  0.09110594    -0.39500
O2424       O  0.35175783  0.97353484  0.13560849    -0.39500
O2425       O  0.22102634  0.03025807  0.08968994    -0.40200
O2426       O  0.22325441  0.03368633  0.13426970    -0.40200
C2427       C  0.11288546  0.97920098  0.31178012    -0.12500
C2428       C  0.13635092  0.96335321  0.30618281     0.04500
C2429       C  0.16096983  0.97761815  0.29915238    -0.07800
C2430       C  0.16116207  0.00662863  0.29693229    -0.08500
C2431       C  0.13739281  0.02240864  0.30155880    -0.03100
C2432       C  0.11309910  0.00816487  0.30954990     0.03700
N2433       N  0.08776755  0.02245061  0.31403223     0.66200
H2434       H  0.09379283  0.96902842  0.31715679     0.15100
H2435       H  0.17994960  0.01673870  0.29052332     0.14800
N2436       N  0.18573559  0.96312009  0.29251972     0.73900
O2437       O  0.06974095  0.02229591  0.29526355    -0.39500
O2438       O  0.08077663  0.02841953  0.33823506    -0.39500
O2439       O  0.19288165  0.96148473  0.26770090    -0.40200
O2440       O  0.20341294  0.95869390  0.31115423    -0.40200
C2441       C  0.01247128  0.88651980  0.30573091    -0.12500
C2442       C  0.02466068  0.86226124  0.29499831     0.04500
C2443       C  0.00678546  0.84102557  0.28565262    -0.07800
C2444       C  0.97811982  0.84430755  0.28772776    -0.08500
C2445       C  0.96600413  0.86845391  0.29843531    -0.03100
C2446       C  0.98365030  0.88984470  0.30733935     0.03700
N2447       N  0.97284582  0.91486259  0.31861764     0.66200
H2448       H  0.02539596  0.90326923  0.31297699     0.15100
H2449       H  0.96514693  0.82761158  0.28040884     0.14800
N2450       N  0.01685018  0.81620262  0.27317282     0.73900
O2451       O  0.97002081  0.91687858  0.34428620    -0.39500
O2452       O  0.97235008  0.93648494  0.30406520    -0.39500
O2453       O  0.02546531  0.79677727  0.28826802    -0.40200
O2454       O  0.00901351  0.81048924  0.24909435    -0.40200
C2455       C  0.20582772  0.90568243  0.23785083    -0.12500
C2456       C  0.17944190  0.89644644  0.23005171     0.04500
C2457       C  0.17355816  0.89324506  0.20187710    -0.07800
C2458       C  0.19488201  0.89594064  0.18268165    -0.08500
C2459       C  0.22187524  0.90358398  0.19059485    -0.03100
C2460       C  0.22650775  0.91078085  0.21835370     0.03700
N2461       N  0.25147717  0.92389557  0.22704997     0.66200
H2462       H  0.21029758  0.90925461  0.25940232     0.15100
H2463       H  0.19026052  0.89164511  0.16129511     0.14800
N2464       N  0.14649933  0.88641575  0.19233363     0.73900
O2465       O  0.25673724  0.94785323  0.21820049    -0.39500
O2466       O  0.26372055  0.91542745  0.24841596    -0.39500
O2467       O  0.12846429  0.90526360  0.19120666    -0.40200
O2468       O  0.14316087  0.86493156  0.17799693    -0.40200
C2469       C  0.00986073  0.69762269  0.11803479    -0.12500
C2470       C  0.02429837  0.71130549  0.13910269     0.04500
C2471       C  0.00917997  0.72425100  0.16027143    -0.07800
C2472       C  0.98033382  0.72395278  0.15948271    -0.08500
C2473       C  0.96600233  0.71093282  0.13797289    -0.03100
C2474       C  0.98106252  0.69733066  0.11728339     0.03700
N2475       N  0.96750277  0.68266366  0.09562377     0.66200
H2476       H  0.02099216  0.68709879  0.10186024     0.15100
H2477       H  0.96908882  0.73465929  0.17546455     0.14800
N2478       N  0.02258797  0.73904274  0.18193544     0.73900
O2479       O  0.96489435  0.69393604  0.07235235    -0.39500
O2480       O  0.96407906  0.65688516  0.09785300    -0.39500
O2481       O  0.02479321  0.76499880  0.18022422    -0.40200
O2482       O  0.02617232  0.72739419  0.20489876    -0.40200
C2483       C  0.20629247  0.76334318  0.12061854    -0.12500
C2484       C  0.17901057  0.77011514  0.11375626     0.04500
C2485       C  0.17240306  0.79768598  0.10664502    -0.07800
C2486       C  0.19347699  0.81736948  0.10486790    -0.08500
C2487       C  0.22102586  0.81009292  0.11053470    -0.03100
C2488       C  0.22705745  0.78289423  0.11960575     0.03700
N2489       N  0.25405272  0.77461867  0.12837152     0.66200
H2490       H  0.21185934  0.74248490  0.12679947     0.15100
H2491       H  0.18822455  0.83833662  0.09884777     0.14800
N2492       N  0.14453511  0.80632423  0.10222189     0.73900
O2493       O  0.26039461  0.77613685  0.15351039    -0.39500
O2494       O  0.26882592  0.76031498  0.11251938    -0.39500
O2495       O  0.13206071  0.81884595  0.12120456    -0.40200
O2496       O  0.13521111  0.80779838  0.07800834    -0.40200
C2497       C  0.09126953  0.80174148  0.17811863    -0.12500
C2498       C  0.11490798  0.78544963  0.17418582     0.04500
C2499       C  0.13898364  0.79196747  0.18942313    -0.07800
C2500       C  0.13781430  0.81149686  0.21054127    -0.08500
C2501       C  0.11325331  0.82539135  0.21682292    -0.03100
C2502       C  0.09030529  0.82182459  0.19911517     0.03700
N2503       N  0.06513290  0.83642729  0.20356479     0.66200
H2504       H  0.07279315  0.79748259  0.16625816     0.15100
H2505       H  0.15597455  0.81464488  0.22325632     0.14800
N2506       N  0.16471119  0.77840585  0.18445002     0.73900
O2507       O  0.06316042  0.86125716  0.19574648    -0.39500
O2508       O  0.04344518  0.82286909  0.20788926    -0.39500
O2509       O  0.18396722  0.79224160  0.17394101    -0.40200
O2510       O  0.17068110  0.75678470  0.19781253    -0.40200
C2511       C  0.49018644  0.80769735  0.34937769    -0.12500
C2512       C  0.47482352  0.81158510  0.37346465     0.04500
C2513       C  0.48970958  0.81512378  0.39844326    -0.07800
C2514       C  0.51879614  0.81316159  0.39894734    -0.08500
C2515       C  0.53380074  0.80829513  0.37488753    -0.03100
C2516       C  0.51905587  0.80577013  0.34987626     0.03700
N2517       N  0.53269272  0.79857954  0.32498294     0.66200
H2518       H  0.47970695  0.80456954  0.32990616     0.15100
H2519       H  0.52969130  0.81512421  0.41835407     0.14800
N2520       N  0.47580739  0.82032399  0.42363789     0.73900
O2521       O  0.53470121  0.77331892  0.31874157    -0.39500
O2522       O  0.53403870  0.81639393  0.30611029    -0.39500
O2523       O  0.47605369  0.80193222  0.44204235    -0.40200
O2524       O  0.46993039  0.84494383  0.43001765    -0.40200
C2525       C  0.35207535  0.82217773  0.25671120    -0.12500
C2526       C  0.33888399  0.83569706  0.27852457     0.04500
C2527       C  0.31817906  0.85533582  0.27215269    -0.07800
C2528       C  0.31015036  0.85955088  0.24462001    -0.08500
C2529       C  0.32441014  0.84727198  0.22264566    -0.03100
C2530       C  0.34653284  0.82899872  0.22915898     0.03700
N2531       N  0.36572843  0.81960385  0.20891313     0.66200
H2532       H  0.36896562  0.80806792  0.26114476     0.15100
H2533       H  0.29392792  0.87435720  0.24031658     0.14800
N2534       N  0.30579396  0.87198739  0.29298886     0.73900
O2535       O  0.38103423  0.83716188  0.19742136    -0.39500
O2536       O  0.37350684  0.79464871  0.20935391    -0.39500
O2537       O  0.31841251  0.89322140  0.30129764    -0.40200
O2538       O  0.28013938  0.87044861  0.29670546    -0.40200
C2539       C  0.26057456  0.84997443  0.36569681    -0.12500
C2540       C  0.27667680  0.83337840  0.34868307     0.04500
C2541       C  0.26319147  0.81696739  0.32850982    -0.07800
C2542       C  0.23438819  0.81800940  0.32554234    -0.08500
C2543       C  0.21820304  0.83427815  0.34296079    -0.03100
C2544       C  0.23175090  0.85024867  0.36335560     0.03700
N2545       N  0.21685538  0.86816726  0.38109655     0.66200
H2546       H  0.27034872  0.86219593  0.38167189     0.15100
H2547       H  0.22461576  0.80609780  0.30934451     0.14800
N2548       N  0.27826433  0.79931116  0.31051067     0.73900
O2549       O  0.20528744  0.85803179  0.40191867    -0.39500
O2550       O  0.22221005  0.89368505  0.38059309    -0.39500
O2551       O  0.27896348  0.77377770  0.31575369    -0.40200
O2552       O  0.28217706  0.80710213  0.28611758    -0.40200
C2553       C  0.39162004  0.52309396  0.19377722    -0.12500
C2554       C  0.36670282  0.53709420  0.19873431     0.04500
C2555       C  0.34296443  0.52129806  0.20450969    -0.07800
C2556       C  0.34477119  0.49243222  0.20604317    -0.08500
C2557       C  0.36965392  0.47837852  0.20101639    -0.03100
C2558       C  0.39327321  0.49414015  0.19464955     0.03700
N2559       N  0.41914335  0.48127088  0.18893956     0.66200
H2560       H  0.41009949  0.53466521  0.18910247     0.15100
H2561       H  0.32628195  0.48094356  0.21087019     0.14800
N2562       N  0.31678433  0.53406338  0.20901538     0.73900
O2563       O  0.42550452  0.47615104  0.16436500    -0.39500
O2564       O  0.43768841  0.48107968  0.20723020    -0.39500
O2565       O  0.29953106  0.53530519  0.18953228    -0.40200
O2566       O  0.30886981  0.53842893  0.23326999    -0.40200
C2567       C  0.48647016  0.61435789  0.19751331    -0.12500
C2568       C  0.47380556  0.63926816  0.20586193     0.04500
C2569       C  0.49080354  0.66163297  0.21357081    -0.07800
C2570       C  0.51933481  0.65877548  0.21279067    -0.08500
C2571       C  0.53203954  0.63389774  0.20488930    -0.03100
C2572       C  0.51525055  0.61145806  0.19711653     0.03700
N2573       N  0.52691576  0.58572284  0.18857492     0.66200
H2574       H  0.47400462  0.59682683  0.19137773     0.15100
H2575       H  0.53161536  0.67630456  0.21914994     0.14800
N2576       N  0.47979285  0.68719671  0.22331974     0.73900
O2577       O  0.52965426  0.56633895  0.20577452    -0.39500
O2578       O  0.52905316  0.58056248  0.16327336    -0.39500
O2579       O  0.47722890  0.69061065  0.24887656    -0.40200
O2580       O  0.48080126  0.70817592  0.20792510    -0.40200
C2581       C  0.36088738  0.74207776  0.13618383    -0.12500
C2582       C  0.34897884  0.73053545  0.15952971     0.04500
C2583       C  0.33388999  0.74785388  0.17754432    -0.07800
C2584       C  0.33080324  0.77611673  0.17151947    -0.08500
C2585       C  0.34309272  0.78760806  0.14823370    -0.03100
C2586       C  0.35798260  0.77015998  0.13038630     0.03700
N2587       N  0.36986695  0.78048381  0.10574383     0.66200
H2588       H  0.37283457  0.72928348  0.12233478     0.15100
H2589       H  0.31789241  0.78888093  0.18449446     0.14800
N2590       N  0.32036948  0.73690168  0.20116310     0.73900
O2591       O  0.39559948  0.78388350  0.10510482    -0.39500
O2592       O  0.35680939  0.77755876  0.08343189    -0.39500
O2593       O  0.32970939  0.74234335  0.22479374    -0.40200
O2594       O  0.29615798  0.72773523  0.19874994    -0.40200
C2595       C  0.25138870  0.62863689  0.16006982    -0.12500
C2596       C  0.27465254  0.64383370  0.15276354     0.04500
C2597       C  0.27145151  0.66719009  0.13538148    -0.07800
C2598       C  0.24518867  0.67515725  0.12657678    -0.08500
C2599       C  0.22197373  0.66028632  0.13467754    -0.03100
C2600       C  0.22523166  0.63671839  0.15156473     0.03700
N2601       N  0.20241568  0.62002168  0.15958415     0.66200
H2602       H  0.25333640  0.61007133  0.17231266     0.15100
H2603       H  0.24298833  0.69313431  0.11338191     0.14800
N2604       N  0.29444776  0.68268985  0.12573915     0.73900
O2605       O  0.19591741  0.59949679  0.14494108    -0.39500
O2606       O  0.19449055  0.62086693  0.18419808    -0.39500
O2607       O  0.30584603  0.67553946  0.10361730    -0.40200
O2608       O  0.29786706  0.70699904  0.13448611    -0.40200
C2609       C  0.40455681  0.67817358  0.30627354    -0.12500
C2610       C  0.40305296  0.68613695  0.27842244     0.04500
C2611       C  0.40879213  0.71406506  0.27188140    -0.07800
C2612       C  0.41297374  0.73352229  0.29265691    -0.08500
C2613       C  0.41112003  0.72660226  0.32058508    -0.03100
C2614       C  0.40856931  0.69815431  0.32740908     0.03700
N2615       N  0.40931872  0.68919079  0.35536019     0.66200
H2616       H  0.40119686  0.65672287  0.31175693     0.15100
H2617       H  0.41567174  0.75498679  0.28671751     0.14800
N2618       N  0.40949730  0.72351529  0.24403741     0.73900
O2619       O  0.38874810  0.67682361  0.36514648    -0.39500
O2620       O  0.43243211  0.68633288  0.36706266    -0.39500
O2621       O  0.38824965  0.73460792  0.23374203    -0.40200
O2622       O  0.43250062  0.72807067  0.23308539    -0.40200
C2623       C  0.18176379  0.51463645  0.36196494    -0.12500
C2624       C  0.19851791  0.52782450  0.38157112     0.04500
C2625       C  0.21256530  0.51098352  0.40101948    -0.07800
C2626       C  0.21169469  0.48191569  0.39895683    -0.08500
C2627       C  0.19694732  0.46868653  0.37778198    -0.03100
C2628       C  0.18089146  0.48558288  0.35980157     0.03700
N2629       N  0.16471706  0.47387113  0.33811566     0.66200
H2630       H  0.17063056  0.52694352  0.34689723     0.15100
H2631       H  0.22343130  0.46969025  0.41361711     0.14800
N2632       N  0.22789782  0.52301454  0.42309881     0.73900
O2633       O  0.13879103  0.47460954  0.33963274    -0.39500
O2634       O  0.17585582  0.46853467  0.31536366    -0.39500
O2635       O  0.21626102  0.52669732  0.44591786    -0.40200
O2636       O  0.25386107  0.52338253  0.42198198    -0.40200
C2637       C  0.13655104  0.71889580  0.34666856    -0.12500
C2638       C  0.16501847  0.71390252  0.34861989     0.04500
C2639       C  0.18288263  0.73713053  0.35137978    -0.07800
C2640       C  0.17229380  0.76404234  0.35088085    -0.08500
C2641       C  0.14414084  0.76895384  0.34798379    -0.03100
C2642       C  0.12607817  0.74612457  0.34619912     0.03700
N2643       N  0.09705254  0.75023867  0.34360654     0.66200
H2644       H  0.12235613  0.70167819  0.34536443     0.15100
H2645       H  0.18642839  0.78131839  0.35189102     0.14800
N2646       N  0.21198232  0.73403349  0.35504053     0.73900
O2647       O  0.08598640  0.74931432  0.32009678    -0.39500
O2648       O  0.08218481  0.74794728  0.36465069    -0.39500
O2649       O  0.22768456  0.73668443  0.33466107    -0.40200
O2650       O  0.22210292  0.73427601  0.37899163    -0.40200
C2651       C  0.17064840  0.67580233  0.23382788    -0.12500
C2652       C  0.15394965  0.65637974  0.21974232     0.04500
C2653       C  0.14596248  0.63239782  0.23422566    -0.07800
C2654       C  0.15405392  0.62868267  0.26189142    -0.08500
C2655       C  0.17053472  0.64814801  0.27588046    -0.03100
C2656       C  0.17912793  0.67176295  0.26137771     0.03700
N2657       N  0.19580235  0.69222584  0.27448310     0.66200
H2658       H  0.17711738  0.69449008  0.22341292     0.15100
H2659       H  0.14742340  0.61020612  0.27249728     0.14800
N2660       N  0.12889949  0.61197460  0.22155414     0.73900
O2661       O  0.22161092  0.69143470  0.27160405    -0.39500
O2662       O  0.18463177  0.71391613  0.28365698    -0.39500
O2663       O  0.13979321  0.59039876  0.21181386    -0.40200
O2664       O  0.10319942  0.61270874  0.22523007    -0.40200
C2665       C  0.26630885  0.60159632  0.28041987    -0.12500
C2666       C  0.27550013  0.59571015  0.30719551     0.04500
C2667       C  0.30435080  0.59664578  0.31236549    -0.07800
C2668       C  0.32279309  0.60404822  0.29141756    -0.08500
C2669       C  0.31350906  0.61108894  0.26493683    -0.03100
C2670       C  0.28478737  0.60925573  0.25953628     0.03700
N2671       N  0.27393351  0.61363738  0.23260588     0.66200
H2672       H  0.24443946  0.60122083  0.27576703     0.15100
H2673       H  0.34465013  0.60458419  0.29610586     0.14800
N2674       N  0.31548762  0.59018169  0.33886156     0.73900
O2675       O  0.26762829  0.59280479  0.21832049    -0.39500
O2676       O  0.26374295  0.63693513  0.22653921    -0.39500
O2677       O  0.32512342  0.56628250  0.34323096    -0.40200
O2678       O  0.32180765  0.60962007  0.35499090    -0.40200
C2679       C  0.30670487  0.68348260  0.35590263    -0.12500
C2680       C  0.29935449  0.67163099  0.38101944     0.04500
C2681       C  0.31572968  0.67704219  0.40449897    -0.07800
C2682       C  0.33627227  0.69736596  0.40333461    -0.08500
C2683       C  0.34092385  0.71202322  0.37900159    -0.03100
C2684       C  0.32748348  0.70333684  0.35459518     0.03700
N2685       N  0.33356376  0.71549403  0.32854118     0.66200
H2686       H  0.29501967  0.67865503  0.33745941     0.15100
H2687       H  0.34657858  0.70358867  0.42215515     0.14800
N2688       N  0.30951282  0.66492925  0.43044689     0.73900
O2689       O  0.31986719  0.73621864  0.32054584    -0.39500
O2690       O  0.34591111  0.70108311  0.31086622    -0.39500
O2691       O  0.32015812  0.64190295  0.43671056    -0.40200
O2692       O  0.30020635  0.68016005  0.44924866    -0.40200
C2693       C  0.26893774  0.90862835  0.98621900    -0.12500
C2694       C  0.28938609  0.89235890  0.97377082     0.04500
C2695       C  0.30941037  0.87917726  0.99035543    -0.07800
C2696       C  0.30641250  0.87912936  0.01867623    -0.08500
C2697       C  0.28394658  0.89222178  0.03103550    -0.03100
C2698       C  0.26611702  0.90872412  0.01490483     0.03700
N2699       N  0.24343188  0.92309496  0.02688840     0.66200
H2700       H  0.25365738  0.91920303  0.97367187     0.15100
H2701       H  0.32082125  0.86711634  0.03088426     0.14800
N2702       N  0.33212790  0.86443850  0.97878643     0.73900
O2703       O  0.24562127  0.94859205  0.03200120    -0.39500
O2704       O  0.21987725  0.91211633  0.02662067    -0.39500
O2705       O  0.35522742  0.87625522  0.97748880    -0.40200
O2706       O  0.33113806  0.83838388  0.97731972    -0.40200
C2707       C  0.10607549  0.69677606  0.98370866    -0.12500
C2708       C  0.13166088  0.69794801  0.97024095     0.04500
C2709       C  0.15572917  0.69954361  0.98680473    -0.07800
C2710       C  0.15369937  0.70090273  0.01563656    -0.08500
C2711       C  0.12806169  0.70051525  0.02907982    -0.03100
C2712       C  0.10405987  0.69788827  0.01255413     0.03700
N2713       N  0.07732743  0.69628151  0.02453824     0.66200
H2714       H  0.08722360  0.69523161  0.97175875     0.15100
H2715       H  0.17255817  0.70251910  0.02756366     0.14800
N2716       N  0.18252609  0.70014534  0.97485144     0.73900
O2717       O  0.06256971  0.71778298  0.02584400    -0.39500
O2718       O  0.06635424  0.67289268  0.02789655    -0.39500
O2719       O  0.19487557  0.72295629  0.97248064    -0.40200
O2720       O  0.19593909  0.67787145  0.97242942    -0.40200
C2721       C  0.22925830  0.79015127  0.87647415    -0.12500
C2722       C  0.22598095  0.81120956  0.89602774     0.04500
C2723       C  0.20142385  0.81163990  0.91154683    -0.07800
C2724       C  0.18171298  0.79049233  0.90819610    -0.08500
C2725       C  0.18567949  0.76869874  0.88941177    -0.03100
C2726       C  0.20963733  0.76928051  0.87290121     0.03700
N2727       N  0.21472293  0.74885123  0.85232673     0.66200
H2728       H  0.24740582  0.78977976  0.86360807     0.15100
H2729       H  0.16351296  0.79082460  0.92095935     0.14800
N2730       N  0.19648761  0.83268283  0.93150498     0.73900
O2731       O  0.20787410  0.75388879  0.82777299    -0.39500
O2732       O  0.23220484  0.73005934  0.85713983    -0.39500
O2733       O  0.18005885  0.85216539  0.92573391    -0.40200
O2734       O  0.20267913  0.82810507  0.95631746    -0.40200
C2735       C  0.09823286  0.82694434  0.80562143    -0.12500
C2736       C  0.12180351  0.82816901  0.78899858     0.04500
C2737       C  0.14560818  0.81338331  0.79738282    -0.07800
C2738       C  0.14400689  0.79463540  0.81916562    -0.08500
C2739       C  0.11903660  0.78982722  0.83269736    -0.03100
C2740       C  0.09674941  0.80796953  0.82756405     0.03700
N2741       N  0.07169644  0.80564719  0.84257918     0.66200
H2742       H  0.08001991  0.83876646  0.80004224     0.15100
H2743       H  0.16167718  0.78160359  0.82359433     0.14800
N2744       N  0.17095147  0.81533482  0.78264229     0.73900
O2745       O  0.06858747  0.81989407  0.86405632    -0.39500
O2746       O  0.05097913  0.79445885  0.83147782    -0.39500
O2747       O  0.19056733  0.82897368  0.79297606    -0.40200
O2748       O  0.17613309  0.79782911  0.76414040    -0.40200
C2749       C  0.17432480  0.89093186  0.80399599    -0.12500
C2750       C  0.18067653  0.89968367  0.77743076     0.04500
C2751       C  0.20732547  0.90986273  0.77194514    -0.07800
C2752       C  0.22754294  0.90959705  0.79244275    -0.08500
C2753       C  0.22209267  0.89874385  0.81847070    -0.03100
C2754       C  0.19473267  0.89025396  0.82456546     0.03700
N2755       N  0.18732739  0.88027858  0.85117322     0.66200
H2756       H  0.15401665  0.88278821  0.80831477     0.15100
H2757       H  0.24808715  0.91661587  0.78738425     0.14800
N2758       N  0.21472026  0.91927188  0.74516194     0.73900
O2759       O  0.17646368  0.89674755  0.86807589    -0.39500
O2760       O  0.18511285  0.85455038  0.85503147    -0.39500
O2761       O  0.21859911  0.94479956  0.74143159    -0.40200
O2762       O  0.22497930  0.90225181  0.72842086    -0.40200
C2763       C  0.22433605  0.65465074  0.51148241    -0.12500
C2764       C  0.21577750  0.63048925  0.52473441     0.04500
C2765       C  0.20868066  0.60719931  0.50866840    -0.07800
C2766       C  0.21096603  0.60850871  0.48003791    -0.08500
C2767       C  0.22026535  0.63262937  0.46682725    -0.03100
C2768       C  0.22671344  0.65611962  0.48305409     0.03700
N2769       N  0.23664427  0.68149757  0.47161233     0.66200
H2770       H  0.22964495  0.67287019  0.52331893     0.15100
H2771       H  0.20563173  0.59033390  0.46812616     0.14800
N2772       N  0.19922694  0.58206979  0.52085838     0.73900
O2773       O  0.22048424  0.69634975  0.45752004    -0.39500
O2774       O  0.25764888  0.69266136  0.48220807    -0.39500
O2775       O  0.17369699  0.57727050  0.52161222    -0.40200
O2776       O  0.21602250  0.56240011  0.52455292    -0.40200
C2777       C  0.16440180  0.66528528  0.72820185    -0.12500
C2778       C  0.17122856  0.63713729  0.72542191     0.04500
C2779       C  0.16936562  0.61978707  0.74868169    -0.07800
C2780       C  0.16032943  0.63058206  0.77366833    -0.08500
C2781       C  0.15369926  0.65875335  0.77658448    -0.03100
C2782       C  0.15606666  0.67628191  0.75347348     0.03700
N2783       N  0.14895168  0.70496362  0.75484364     0.66200
H2784       H  0.16522653  0.67889175  0.71054039     0.15100
H2785       H  0.15862004  0.61663140  0.79102161     0.14800
N2786       N  0.17514277  0.59083279  0.74715559     0.73900
O2787       O  0.16754349  0.72256039  0.75955927    -0.39500
O2788       O  0.12593831  0.71296709  0.74552866    -0.39500
O2789       O  0.19816048  0.58193250  0.75561688    -0.40200
O2790       O  0.15537602  0.57413990  0.74445352    -0.40200
C2791       C  0.14528787  0.73066717  0.63315642    -0.12500
C2792       C  0.16620405  0.71788304  0.64847753     0.04500
C2793       C  0.18257770  0.73379676  0.66656688    -0.07800
C2794       C  0.17587950  0.76143376  0.67099470    -0.08500
C2795       C  0.15446001  0.77403317  0.65617410    -0.03100
C2796       C  0.14011384  0.75889486  0.63597943     0.03700
N2797       N  0.12005477  0.77159986  0.61844704     0.66200
H2798       H  0.13383283  0.71898549  0.61789393     0.15100
H2799       H  0.18756001  0.77318628  0.68599705     0.14800
N2800       N  0.20645205  0.72259136  0.67993072     0.73900
O2801       O  0.12805606  0.78662671  0.59885646    -0.39500
O2802       O  0.09603908  0.76181146  0.61770199    -0.39500
O2803       O  0.22982671  0.72721634  0.66971782    -0.40200
O2804       O  0.20495188  0.71511078  0.70470396    -0.40200
C2805       C  0.32930005  0.72510752  0.85984017    -0.12500
C2806       C  0.34425104  0.72143124  0.83559293     0.04500
C2807       C  0.35348523  0.74449309  0.82064335    -0.07800
C2808       C  0.34825337  0.77078052  0.83062515    -0.08500
C2809       C  0.33353546  0.77460417  0.85509842    -0.03100
C2810       C  0.32383000  0.75158880  0.86971373     0.03700
N2811       N  0.30831528  0.75475422  0.89433244     0.66200
H2812       H  0.32236528  0.70733682  0.87139087     0.15100
H2813       H  0.35615922  0.78832492  0.81925841     0.14800
N2814       N  0.36998172  0.74156332  0.79652377     0.73900
O2815       O  0.28237686  0.75335735  0.89339280    -0.39500
O2816       O  0.32053265  0.75442638  0.91729131    -0.39500
O2817       O  0.35873145  0.74123006  0.77307615    -0.40200
O2818       O  0.39577737  0.73880502  0.79868209    -0.40200
C2819       C  0.26357012  0.66177317  0.82874804    -0.12500
C2820       C  0.28382515  0.65741400  0.84913279     0.04500
C2821       C  0.27597537  0.65871095  0.87693388    -0.07800
C2822       C  0.24825295  0.66288861  0.88360467    -0.08500
C2823       C  0.22780455  0.66587770  0.86311517    -0.03100
C2824       C  0.23590590  0.66583017  0.83537732     0.03700
N2825       N  0.21651099  0.66936156  0.81347622     0.66200
H2826       H  0.26897385  0.66130511  0.80718800     0.15100
H2827       H  0.24269832  0.66320323  0.90512813     0.14800
N2828       N  0.29560131  0.65551211  0.89871608     0.73900
O2829       O  0.20924039  0.69350218  0.80659804    -0.39500
O2830       O  0.21313819  0.64979179  0.79668156    -0.39500
O2831       O  0.30378786  0.67667029  0.91152333    -0.40200
O2832       O  0.29894535  0.63197970  0.90948489    -0.40200
C2833       C  0.30362279  0.64136086  0.71720993    -0.12500
C2834       C  0.32356580  0.62016815  0.71831466     0.04500
C2835       C  0.32295806  0.59965187  0.69766904    -0.07800
C2836       C  0.30158876  0.59973249  0.67785800    -0.08500
C2837       C  0.28006320  0.61937443  0.67878481    -0.03100
C2838       C  0.28162040  0.64067675  0.69871015     0.03700
N2839       N  0.26031710  0.66101687  0.70180980     0.66200
H2840       H  0.30377589  0.65783973  0.73231037     0.15100
H2841       H  0.30103642  0.58336550  0.66266985     0.14800
N2842       N  0.34298522  0.57795944  0.69713948     0.73900
O2843       O  0.24021212  0.65566659  0.71722933    -0.39500
O2844       O  0.26541608  0.68595598  0.69616084    -0.39500
O2845       O  0.33725377  0.55480362  0.70760106    -0.40200
O2846       O  0.36316088  0.57980419  0.68104016    -0.40200
C2847       C  0.38919283  0.79340293  0.51681828    -0.12500
C2848       C  0.36429497  0.79124949  0.53124017     0.04500
C2849       C  0.33986358  0.78756054  0.51536140    -0.07800
C2850       C  0.34089730  0.78663077  0.48621691    -0.08500
C2851       C  0.36594694  0.78891462  0.47188686    -0.03100
C2852       C  0.39029864  0.79197620  0.48794003     0.03700
N2853       N  0.41677932  0.79283224  0.47543233     0.66200
H2854       H  0.40839110  0.79566053  0.52808337     0.15100
H2855       H  0.32185239  0.78417600  0.47474804     0.14800
N2856       N  0.31370915  0.78474800  0.52832004     0.73900
O2857       O  0.42885861  0.81578799  0.47318860    -0.39500
O2858       O  0.43050341  0.77072301  0.47320655    -0.39500
O2859       O  0.29716943  0.80495010  0.52822589    -0.40200
O2860       O  0.30485501  0.76087388  0.53386004    -0.40200
C2861       C  0.27115146  0.82580823  0.68270112    -0.12500
C2862       C  0.28118617  0.83537571  0.65745933     0.04500
C2863       C  0.26209542  0.84374669  0.63708908    -0.07800
C2864       C  0.23377641  0.84324249  0.64244998    -0.08500
C2865       C  0.22370133  0.83500461  0.66813988    -0.03100
C2866       C  0.24280483  0.82594930  0.68838560     0.03700
N2867       N  0.23387130  0.81675827  0.71477581     0.66200
H2868       H  0.28543805  0.81811455  0.69812657     0.15100
H2869       H  0.21967308  0.85058567  0.62666431     0.14800
N2870       N  0.27094912  0.85234440  0.61055555     0.73900
O2871       O  0.22966438  0.79130815  0.71868982    -0.39500
O2872       O  0.23646564  0.83260335  0.73521966    -0.39500
O2873       O  0.26923433  0.83554188  0.59078525    -0.40200
O2874       O  0.27251691  0.87790394  0.60555222    -0.40200
C2875       C  0.32854070  0.82113227  0.74043392    -0.12500
C2876       C  0.33996405  0.84082158  0.72266142     0.04500
C2877       C  0.33746450  0.86919135  0.72983551    -0.07800
C2878       C  0.32659332  0.87698265  0.75528317    -0.08500
C2879       C  0.31704371  0.85725624  0.77396673    -0.03100
C2880       C  0.31626585  0.82898066  0.76548576     0.03700
N2881       N  0.30279873  0.80812433  0.78167662     0.66200
H2882       H  0.32892274  0.79948903  0.73466269     0.15100
H2883       H  0.32695129  0.89866358  0.76095602     0.14800
N2884       N  0.34667115  0.89058930  0.71189787     0.73900
O2885       O  0.28015848  0.81354099  0.79314573    -0.39500
O2886       O  0.31070501  0.78323057  0.78050028    -0.39500
O2887       O  0.33098598  0.89938315  0.69302073    -0.40200
O2888       O  0.37048156  0.90063636  0.71481115    -0.40200
C2889       C  0.32767438  0.70146481  0.58888267    -0.12500
C2890       C  0.33322534  0.71341788  0.61474792     0.04500
C2891       C  0.32028881  0.70193453  0.63805707    -0.07800
C2892       C  0.30099114  0.68071262  0.63490427    -0.08500
C2893       C  0.29297085  0.67097394  0.60899166    -0.03100
C2894       C  0.30742541  0.68064690  0.58577086     0.03700
N2895       N  0.29972378  0.67201998  0.55874306     0.66200
H2896       H  0.33711832  0.71009131  0.57068517     0.15100
H2897       H  0.29030222  0.67341768  0.65283128     0.14800
N2898       N  0.32466052  0.71303343  0.66497294     0.73900
O2899       O  0.28257962  0.68630310  0.54518332    -0.39500
O2900       O  0.31443581  0.65447135  0.54640959    -0.39500
O2901       O  0.30939826  0.73252216  0.67312733    -0.40200
O2902       O  0.33741249  0.69863773  0.68258481    -0.40200
C2903       C  0.39952101  0.69233247  0.67183319    -0.12500
C2904       C  0.40611529  0.71977652  0.67864630     0.04500
C2905       C  0.41429098  0.72557146  0.70594920    -0.07800
C2906       C  0.41337654  0.70489372  0.72612714    -0.08500
C2907       C  0.40454724  0.67792067  0.72004754    -0.03100
C2908       C  0.39877269  0.67138260  0.69222987     0.03700
N2909       N  0.38944898  0.64450294  0.68463953     0.66200
H2910       H  0.39279650  0.68756012  0.65110189     0.15100
H2911       H  0.41822999  0.71042669  0.74719400     0.14800
N2912       N  0.42207886  0.75295110  0.71391573     0.73900
O2913       O  0.36485821  0.64167731  0.67661496    -0.39500
O2914       O  0.40702131  0.62639140  0.67817218    -0.39500
O2915       O  0.40506585  0.76807714  0.72646554    -0.40200
O2916       O  0.44721352  0.75955210  0.71380101    -0.40200
C2917       C  0.72453253  0.85261271  0.98036674    -0.12500
C2918       C  0.71155651  0.87324964  0.96474603     0.04500
C2919       C  0.69806613  0.89508309  0.97877240    -0.07800
C2920       C  0.69844263  0.89615742  0.00778578    -0.08500
C2921       C  0.71135821  0.87529080  0.02349143    -0.03100
C2922       C  0.72464277  0.85337707  0.00917526     0.03700
N2923       N  0.73930406  0.83199489  0.02343723     0.66200
H2924       H  0.73522463  0.83584154  0.97014196     0.15100
H2925       H  0.68767092  0.91282765  0.01806151     0.14800
N2926       N  0.68262448  0.91549369  0.96389242     0.73900
O2927       O  0.72781278  0.80888985  0.02699035    -0.39500
O2928       O  0.76517535  0.83361568  0.02563714    -0.39500
O2929       O  0.66034802  0.90891873  0.95209075    -0.40200
O2930       O  0.69226545  0.93949541  0.96072741    -0.40200
C2931       C  0.86488696  0.73394742  0.98479150    -0.12500
C2932       C  0.87091865  0.70961711  0.97039308     0.04500
C2933       C  0.88201509  0.68676721  0.98483531    -0.07800
C2934       C  0.88533081  0.68805797  0.01343213    -0.08500
C2935       C  0.87915805  0.71232085  0.02794497    -0.03100
C2936       C  0.86943695  0.73569495  0.01323147     0.03700
N2937       N  0.86300701  0.76101351  0.02694898     0.66200
H2938       H  0.85715824  0.75191744  0.97379241     0.15100
H2939       H  0.89262398  0.66990030  0.02441370     0.14800
N2940       N  0.88920452  0.66176245  0.97096032     0.73900
O2941       O  0.88122978  0.77948493  0.02895743    -0.39500
O2942       O  0.83813316  0.76730429  0.03112525    -0.39500
O2943       O  0.91334070  0.65890541  0.96188571    -0.40200
O2944       O  0.87460730  0.64054043  0.97458381    -0.40200
C2945       C  0.98457894  0.69329806  0.88294698    -0.12500
C2946       C  0.96966950  0.70562687  0.86138189     0.04500
C2947       C  0.98423627  0.71827134  0.83970222    -0.07800
C2948       C  0.01302613  0.71972412  0.84084583    -0.08500
C2949       C  0.02790206  0.70835887  0.86300905    -0.03100
C2950       C  0.01336101  0.69409023  0.88371042     0.03700
N2951       N  0.02741048  0.67938267  0.90512067     0.66200
H2952       H  0.97382306  0.68265110  0.89927003     0.15100
H2953       H  0.02370703  0.73038446  0.82449098     0.14800
N2954       N  0.97022113  0.73082131  0.81695306     0.73900
O2955       O  0.02960378  0.69017512  0.92862318    -0.39500
O2956       O  0.03185730  0.65380137  0.90233267    -0.39500
O2957       O  0.96749387  0.75678904  0.81627251    -0.40200
O2958       O  0.96680457  0.71710149  0.79515748    -0.40200
C2959       C  0.82917263  0.80855120  0.88869485    -0.12500
C2960       C  0.82109167  0.78081065  0.89143735     0.04500
C2961       C  0.79268395  0.77461821  0.89307870    -0.07800
C2962       C  0.77313236  0.79538255  0.88967274    -0.08500
C2963       C  0.78082906  0.82286410  0.88539695    -0.03100
C2964       C  0.80918667  0.82975406  0.88611656     0.03700
N2965       N  0.81806279  0.85764866  0.88235263     0.66200
H2966       H  0.85084788  0.81360694  0.88722327     0.15100
H2967       H  0.75154764  0.78977607  0.89030823     0.14800
N2968       N  0.78318184  0.74699061  0.89756070     0.73900
O2969       O  0.82167589  0.87280452  0.90314736    -0.39500
O2970       O  0.82867708  0.86462564  0.85980496    -0.39500
O2971       O  0.77895701  0.73886789  0.92180446    -0.40200
O2972       O  0.77270262  0.73372050  0.87779479    -0.40200
C2973       C  0.98639150  0.83438760  0.71267912    -0.12500
C2974       C  0.97312019  0.85756997  0.70109272     0.04500
C2975       C  0.98960441  0.87945705  0.69116422    -0.07800
C2976       C  0.01827775  0.87841803  0.69425354    -0.08500
C2977       C  0.03155114  0.85590027  0.70705156    -0.03100
C2978       C  0.01520065  0.83335380  0.71578432     0.03700
N2979       N  0.02721100  0.80957965  0.72863440     0.66200
H2980       H  0.97429849  0.81725310  0.72032890     0.15100
H2981       H  0.03019566  0.89569775  0.68664466     0.14800
N2982       N  0.97772613  0.90295758  0.67767194     0.73900
O2983       O  0.02908948  0.80872431  0.75449105    -0.39500
O2984       O  0.02959566  0.78747503  0.71505911    -0.39500
O2985       O  0.97627968  0.92568367  0.69033587    -0.40200
O2986       O  0.97505811  0.90274058  0.65186962    -0.40200
C2987       C  0.82022271  0.90780508  0.57665745    -0.12500
C2988       C  0.83087206  0.92044446  0.60047569     0.04500
C2989       C  0.82690779  0.94934702  0.60352685    -0.07800
C2990       C  0.81150094  0.96423919  0.58366547    -0.08500
C2991       C  0.79893610  0.95077847  0.56133192    -0.03100
C2992       C  0.80406545  0.92240008  0.55768461     0.03700
N2993       N  0.79143186  0.90739725  0.53581933     0.66200
H2994       H  0.82275105  0.88575883  0.57342973     0.15100
H2995       H  0.80883149  0.98629008  0.58603538     0.14800
N2996       N  0.83746702  0.96379970  0.62687574     0.73900
O2997       O  0.80646258  0.89849466  0.51678040    -0.39500
O2998       O  0.76862532  0.89578823  0.54004266    -0.39500
O2999       O  0.85980384  0.97690728  0.62481295    -0.40200
O3000       O  0.82153496  0.96917825  0.64654845    -0.40200
C3001       C  0.86348555  0.79985311  0.77678029    -0.12500
C3002       C  0.88622725  0.81795959  0.77522819     0.04500
C3003       C  0.90751321  0.81451141  0.79493709    -0.07800
C3004       C  0.90570145  0.79330551  0.81505189    -0.08500
C3005       C  0.88358720  0.77429721  0.81532633    -0.03100
C3006       C  0.86229658  0.77806551  0.79574408     0.03700
N3007       N  0.83968611  0.75925027  0.79386474     0.66200
H3008       H  0.84671883  0.80161243  0.76205490     0.15100
H3009       H  0.92255236  0.79072624  0.82954035     0.14800
N3010       N  0.93208281  0.83060533  0.79350827     0.73900
O3011       O  0.81727363  0.76510012  0.80551494    -0.39500
O3012       O  0.84016555  0.74031527  0.77602635    -0.39500
O3013       O  0.93610548  0.84957995  0.81084618    -0.40200
O3014       O  0.95199918  0.82195686  0.77931505    -0.40200
C3015       C  0.81250159  0.86344234  0.77952368    -0.12500
C3016       C  0.82380262  0.88812759  0.76987663     0.04500
C3017       C  0.81803754  0.91297086  0.78421415    -0.07800
C3018       C  0.79939893  0.91289997  0.80634434    -0.08500
C3019       C  0.78659872  0.88833276  0.81477523    -0.03100
C3020       C  0.79447856  0.86321644  0.80187877     0.03700
N3021       N  0.78445479  0.83710196  0.81124449     0.66200
H3022       H  0.81735982  0.84412631  0.76932548     0.15100
H3023       H  0.79351635  0.93238340  0.81566480     0.14800
N3024       N  0.82886735  0.93880218  0.77502861     0.73900
O3025       O  0.76345994  0.82679174  0.79984660    -0.39500
O3026       O  0.80071993  0.82131883  0.82420108    -0.39500
O3027       O  0.81378846  0.95470419  0.76083226    -0.40200
O3028       O  0.85036820  0.94828769  0.78623032    -0.40200
C3029       C  0.51711518  0.60638619  0.79967550    -0.12500
C3030       C  0.53057429  0.63199514  0.79699040     0.04500
C3031       C  0.51436188  0.65641607  0.79669251    -0.07800
C3032       C  0.48580217  0.65466820  0.79722470    -0.08500
C3033       C  0.47215854  0.62920376  0.79928520    -0.03100
C3034       C  0.48821178  0.60481135  0.80105250     0.03700
N3035       N  0.47568202  0.57825561  0.80339090     0.66200
H3036       H  0.52901166  0.58737609  0.80024673     0.15100
H3037       H  0.47426265  0.67388521  0.79614929     0.14800
N3038       N  0.52624030  0.68344036  0.79601642     0.73900
O3039       O  0.47056370  0.56455591  0.78191076    -0.39500
O3040       O  0.47566317  0.56619369  0.82639058    -0.39500
O3041       O  0.52494904  0.69738038  0.77412448    -0.40200
O3042       O  0.53048561  0.69584154  0.81841621    -0.40200
C3043       C  0.73982609  0.62644637  0.83786409    -0.12500
C3044       C  0.72240649  0.64825882  0.82927006     0.04500
C3045       C  0.73426619  0.67465633  0.82530999    -0.07800
C3046       C  0.76127568  0.67951821  0.83481110    -0.08500
C3047       C  0.77836009  0.65808414  0.84465453    -0.03100
C3048       C  0.76757832  0.63101319  0.84520778     0.03700
N3049       N  0.78443959  0.60796165  0.85301958     0.66200
H3050       H  0.73179643  0.60559708  0.83900680     0.15100
H3051       H  0.76972963  0.70010284  0.83276254     0.14800
N3052       N  0.72077886  0.69578611  0.80928747     0.73900
O3053       O  0.78653127  0.60114969  0.87797867    -0.39500
O3054       O  0.79967167  0.59647687  0.83544286    -0.39500
O3055       O  0.72930028  0.72043567  0.81050496    -0.40200
O3056       O  0.70501926  0.68909810  0.78967477    -0.40200
C3057       C  0.67320416  0.73647680  0.82219584    -0.12500
C3058       C  0.66868690  0.71541057  0.84133960     0.04500
C3059       C  0.67493660  0.72035540  0.86932287    -0.07800
C3060       C  0.68356713  0.74677097  0.87756128    -0.08500
C3061       C  0.68606392  0.76822559  0.85833649    -0.03100
C3062       C  0.68286039  0.76220953  0.83018736     0.03700
N3063       N  0.68965176  0.78173763  0.80924478     0.66200
H3064       H  0.66961309  0.73288247  0.80048801     0.15100
H3065       H  0.68652925  0.75091039  0.89922899     0.14800
N3066       N  0.67041123  0.69988620  0.88994817     0.73900
O3067       O  0.71445210  0.78891562  0.80647066    -0.39500
O3068       O  0.67312277  0.78527876  0.78945093    -0.39500
O3069       O  0.69098082  0.68937648  0.90207837    -0.40200
O3070       O  0.64709612  0.69854877  0.90117831    -0.40200
C3071       C  0.79086091  0.65159934  0.51712043    -0.12500
C3072       C  0.80015944  0.62737504  0.53018373     0.04500
C3073       C  0.80749706  0.60434356  0.51401568    -0.07800
C3074       C  0.80587737  0.60615191  0.48542960    -0.08500
C3075       C  0.79629074  0.63031404  0.47231303    -0.03100
C3076       C  0.78833913  0.65317338  0.48860818     0.03700
N3077       N  0.77555957  0.67728880  0.47706127     0.66200
H3078       H  0.78440478  0.66930917  0.52915242     0.15100
H3079       H  0.81186804  0.58822772  0.47348008     0.14800
N3080       N  0.81616049  0.57878841  0.52611233     0.73900
O3081       O  0.75016798  0.68107145  0.48090134    -0.39500
O3082       O  0.79021161  0.69781421  0.47080924    -0.39500
O3083       O  0.79947178  0.55884359  0.52692460    -0.40200
O3084       O  0.84152783  0.57421783  0.52981028    -0.40200
C3085       C  0.82600437  0.65815002  0.73773270    -0.12500
C3086       C  0.84538499  0.65626293  0.71669158     0.04500
C3087       C  0.87323716  0.66261691  0.72237510    -0.07800
C3088       C  0.88129865  0.66880371  0.74915213    -0.08500
C3089       C  0.86216104  0.66888001  0.77060468    -0.03100
C3090       C  0.83411347  0.66433161  0.76450142     0.03700
N3091       N  0.81340343  0.66599503  0.78497873     0.66200
H3092       H  0.80443789  0.65387848  0.73369062     0.15100
H3093       H  0.90293397  0.67268258  0.75322125     0.14800
N3094       N  0.89377306  0.66239245  0.70146315     0.73900
O3095       O  0.80353495  0.68944546  0.79074914    -0.39500
O3096       O  0.79963241  0.64458140  0.79032719    -0.39500
O3097       O  0.90133805  0.68501751  0.69102647    -0.40200
O3098       O  0.90860044  0.64112368  0.69839517    -0.40200
C3099       C  0.83369253  0.73156924  0.65917530    -0.12500
C3100       C  0.83562246  0.72490561  0.63126150     0.04500
C3101       C  0.84019540  0.74635864  0.61205383    -0.07800
C3102       C  0.84303520  0.77369117  0.62105950    -0.08500
C3103       C  0.84164648  0.78040124  0.64906648    -0.03100
C3104       C  0.83640840  0.75893630  0.66821243     0.03700
N3105       N  0.83402097  0.76434069  0.69695894     0.66200
H3106       H  0.82976338  0.71545376  0.67414755     0.15100
H3107       H  0.84747622  0.78957535  0.60600149     0.14800
N3108       N  0.84383196  0.74061986  0.58350301     0.73900
O3109       O  0.81046800  0.76831009  0.70707925    -0.39500
O3110       O  0.85409159  0.75898149  0.71272693    -0.39500
O3111       O  0.82480844  0.74662383  0.56670734    -0.40200
O3112       O  0.86774592  0.73581592  0.57462441    -0.40200
C3113       C  0.69724266  0.61376729  0.67317084    -0.12500
C3114       C  0.72127715  0.59808877  0.67649613     0.04500
C3115       C  0.72466422  0.58225281  0.70069432    -0.07800
C3116       C  0.70492172  0.58340960  0.72157002    -0.08500
C3117       C  0.68118598  0.59989619  0.71895524    -0.03100
C3118       C  0.67715661  0.61467687  0.69386262     0.03700
N3119       N  0.65383213  0.63231654  0.68959833     0.66200
H3120       H  0.69473637  0.62665842  0.65507248     0.15100
H3121       H  0.70871366  0.57183189  0.74028227     0.14800
N3122       N  0.74859845  0.56545196  0.70482320     0.73900
O3123       O  0.65593729  0.65778797  0.69484730    -0.39500
O3124       O  0.63414811  0.62403750  0.67469651    -0.39500
O3125       O  0.76762984  0.57395382  0.72042927    -0.40200
O3126       O  0.74747951  0.54008146  0.69882851    -0.40200
C3127       C  0.51572565  0.78898383  0.60188378    -0.12500
C3128       C  0.53244474  0.80606787  0.61837308     0.04500
C3129       C  0.51931220  0.82034244  0.64034950    -0.07800
C3130       C  0.49083773  0.81704446  0.64531878    -0.08500
C3131       C  0.47452864  0.79975605  0.62896370    -0.03100
C3132       C  0.48731146  0.78585752  0.60683208     0.03700
N3133       N  0.47197977  0.76709205  0.59004495     0.66200
H3134       H  0.52495903  0.77718708  0.58538626     0.15100
H3135       H  0.48140947  0.82824811  0.66208562     0.14800
N3136       N  0.53449979  0.83704825  0.65911604     0.73900
O3137       O  0.47047644  0.74197074  0.59696207    -0.39500
O3138       O  0.46480912  0.77424170  0.56610078    -0.39500
O3139       O  0.53307460  0.86299557  0.65649057    -0.40200
O3140       O  0.54038334  0.82704679  0.68239920    -0.40200
C3141       C  0.61762229  0.79771521  0.51410113    -0.12500
C3142       C  0.64006753  0.78492198  0.52750633     0.04500
C3143       C  0.66178637  0.77398478  0.51167670    -0.07800
C3144       C  0.66023714  0.77535102  0.48315435    -0.08500
C3145       C  0.63747837  0.78736434  0.46971296    -0.03100
C3146       C  0.61615843  0.79904915  0.48544115     0.03700
N3147       N  0.59329889  0.81288987  0.47278562     0.66200
H3148       H  0.60100995  0.80671082  0.52593212     0.15100
H3149       H  0.67682691  0.76614139  0.47144870     0.14800
N3150       N  0.68470178  0.75974129  0.52386300     0.73900
O3151       O  0.57084352  0.80016399  0.46958434    -0.39500
O3152       O  0.59370185  0.83888921  0.47037153    -0.39500
O3153       O  0.68744261  0.73415194  0.51955510    -0.40200
O3154       O  0.70543529  0.77340159  0.53164001    -0.40200
C3155       C  0.67620008  0.84010237  0.72263213    -0.12500
C3156       C  0.65148559  0.82620078  0.71705406     0.04500
C3157       C  0.63314982  0.82055693  0.73875275    -0.07800
C3158       C  0.63952238  0.82937300  0.76529767    -0.08500
C3159       C  0.66441555  0.84283872  0.77103796    -0.03100
C3160       C  0.68294830  0.84820460  0.74944452     0.03700
N3161       N  0.70794456  0.86311206  0.75414982     0.66200
H3162       H  0.68999045  0.84528593  0.70601291     0.15100
H3163       H  0.62502849  0.82523108  0.78163211     0.14800
N3164       N  0.60731948  0.80712761  0.73408872     0.73900
O3165       O  0.73076015  0.85053140  0.75392690    -0.39500
O3166       O  0.70717328  0.88861080  0.75972020    -0.39500
O3167       O  0.60494107  0.78192509  0.74038949    -0.40200
O3168       O  0.58582586  0.82166451  0.73148073    -0.40200
C3169       C  0.72333658  0.87826258  0.64761054    -0.12500
C3170       C  0.71720152  0.85017960  0.65169325     0.04500
C3171       C  0.73765069  0.83265581  0.66344356    -0.07800
C3172       C  0.76381262  0.84298517  0.66913424    -0.08500
C3173       C  0.77022712  0.87062599  0.66396220    -0.03100
C3174       C  0.74964169  0.88861825  0.65364745     0.03700
N3175       N  0.75566470  0.91678422  0.64709527     0.66200
H3176       H  0.70809827  0.89200805  0.63854497     0.15100
H3177       H  0.77937429  0.82912902  0.67751748     0.14800
N3178       N  0.73256399  0.80413413  0.66934682     0.73900
O3179       O  0.76386482  0.92272444  0.62326804    -0.39500
O3180       O  0.74667253  0.93581018  0.66237825    -0.39500
O3181       O  0.74210741  0.78575286  0.65361648    -0.40200
O3182       O  0.72419294  0.79734819  0.69288740    -0.40200
C3183       C  0.65072382  0.89840115  0.56214513    -0.12500
C3184       C  0.66278900  0.87195322  0.56052457     0.04500
C3185       C  0.68769507  0.86927306  0.54551305    -0.07800
C3186       C  0.70003346  0.89242471  0.53361568    -0.08500
C3187       C  0.68948475  0.91916914  0.53728520    -0.03100
C3188       C  0.66391060  0.92191247  0.55106909     0.03700
N3189       N  0.65178836  0.94846875  0.55559750     0.66200
H3190       H  0.63203787  0.90127180  0.57388312     0.15100
H3191       H  0.71902467  0.88936842  0.52248424     0.14800
N3192       N  0.70221790  0.84354685  0.54378536     0.73900
O3193       O  0.63302985  0.95696598  0.53958974    -0.39500
O3194       O  0.65532391  0.96031624  0.57843804    -0.39500
O3195       O  0.70103330  0.82994737  0.52173671    -0.40200
O3196       O  0.72170280  0.83879392  0.56047821    -0.40200
C3197       C  0.57295022  0.71827424  0.68857540    -0.12500
C3198       C  0.59503662  0.73671804  0.68542664     0.04500
C3199       C  0.61985995  0.73163825  0.69981877    -0.07800
C3200       C  0.62180633  0.70957278  0.71773532    -0.08500
C3201       C  0.60003410  0.69110759  0.72132746    -0.03100
C3202       C  0.57540009  0.69517520  0.70617052     0.03700
N3203       N  0.55333938  0.67574369  0.70744851     0.66200
H3204       H  0.55443766  0.72094082  0.67626555     0.15100
H3205       H  0.64128486  0.70639117  0.72837120     0.14800
N3206       N  0.64443950  0.74692863  0.69474256     0.73900
O3207       O  0.53131888  0.68242837  0.71937632    -0.39500
O3208       O  0.55313819  0.65561132  0.69095859    -0.39500
O3209       O  0.65518429  0.76036700  0.71425424    -0.40200
O3210       O  0.65975014  0.73897226  0.67549985    -0.40200
C3211       C  0.70823498  0.67216773  0.59844888    -0.12500
C3212       C  0.73050012  0.67455748  0.61700660     0.04500
C3213       C  0.72944403  0.69554461  0.63714392    -0.07800
C3214       C  0.70822893  0.71508054  0.63655873    -0.08500
C3215       C  0.68690635  0.71417353  0.61680272    -0.03100
C3216       C  0.68634760  0.69150525  0.59842496     0.03700
N3217       N  0.66433544  0.68812839  0.57913245     0.66200
H3218       H  0.70823499  0.65581576  0.58323590     0.15100
H3219       H  0.70894878  0.73158863  0.65159127     0.14800
N3220       N  0.75003367  0.69766793  0.65823665     0.73900
O3221       O  0.66829842  0.69380819  0.55419384    -0.39500
O3222       O  0.64415826  0.67308670  0.58549776    -0.39500
O3223       O  0.76609288  0.71815213  0.65880601    -0.40200
O3224       O  0.75163650  0.67948308  0.67680903    -0.40200
C3225       C  0.30811629  0.11676754  0.99231556    -0.12500
C3226       C  0.29031276  0.13685510  0.98086357     0.04500
C3227       C  0.27376957  0.15265084  0.99863614    -0.07800
C3228       C  0.27438825  0.14719718  0.02703540    -0.08500
C3229       C  0.29207920  0.12703306  0.03840519    -0.03100
C3230       C  0.30944413  0.11209842  0.02074689     0.03700
N3231       N  0.32750080  0.09113464  0.03117087     0.66200
H3232       H  0.32096630  0.10431362  0.97898600     0.15100
H3233       H  0.26132499  0.15911818  0.04048735     0.14800
N3234       N  0.25569157  0.17360933  0.98819014     0.73900
O3235       O  0.31882243  0.06665110  0.03338668    -0.39500
O3236       O  0.35306594  0.09568434  0.03239183    -0.39500
O3237       O  0.23020242  0.16884444  0.98628882    -0.40200
O3238       O  0.26422826  0.19816781  0.98622091    -0.40200
C3239       C  0.30475931  0.98761857  0.89845899    -0.12500
C3240       C  0.28426422  0.97494125  0.88242178     0.04500
C3241       C  0.26956538  0.99073591  0.86286780    -0.07800
C3242       C  0.27516348  0.01899654  0.86011435    -0.08500
C3243       C  0.29518186  0.03171357  0.87668016    -0.03100
C3244       C  0.31021773  0.01580671  0.89585379     0.03700
N3245       N  0.33169488  0.02780077  0.91213559     0.66200
H3246       H  0.31693666  0.97541819  0.91281081     0.15100
H3247       H  0.26335912  0.03119375  0.84546229     0.14800
N3248       N  0.25005248  0.97815311  0.84472143     0.73900
O3249       O  0.32721752  0.03354517  0.93699173    -0.39500
O3250       O  0.35620283  0.02677077  0.90367439    -0.39500
O3251       O  0.22467344  0.97996002  0.84989518    -0.40200
O3252       O  0.25762338  0.97054092  0.82115136    -0.40200
C3253       C  0.11726364  0.01170938  0.69155612    -0.12500
C3254       C  0.13898002  0.02440580  0.70634820     0.04500
C3255       C  0.15921852  0.00713095  0.71847975    -0.07800
C3256       C  0.15775419  0.97832615  0.71508860    -0.08500
C3257       C  0.13602791  0.96559136  0.70054135    -0.03100
C3258       C  0.11557068  0.98269592  0.68875323     0.03700
N3259       N  0.09299244  0.97096339  0.67387380     0.66200
H3260       H  0.10137575  0.02439097  0.68208839     0.15100
H3261       H  0.17309409  0.96568444  0.72533579     0.14800
N3262       N  0.17988275  0.01805904  0.73651739     0.73900
O3263       O  0.06963666  0.96936004  0.68498560    -0.39500
O3264       O  0.09709869  0.95924930  0.65109719    -0.39500
O3265       O  0.17383852  0.02263151  0.76127798    -0.40200
O3266       O  0.20492369  0.01642612  0.72989612    -0.40200
C3267       C  0.21039503  0.12366305  0.77780113    -0.12500
C3268       C  0.18559380  0.10963617  0.78282460     0.04500
C3269       C  0.18244891  0.09722864  0.80890795    -0.07800
C3270       C  0.20398460  0.09899982  0.82879747    -0.08500
C3271       C  0.22893826  0.11301302  0.82323938    -0.03100
C3272       C  0.23157729  0.12542327  0.79711437     0.03700
N3273       N  0.25648083  0.13819081  0.78844210     0.66200
H3274       H  0.21411193  0.13323349  0.75803032     0.15100
H3275       H  0.20112996  0.08930917  0.84864384     0.14800
N3276       N  0.15749066  0.08352240  0.81590186     0.73900
O3277       O  0.26967305  0.12680591  0.76929847    -0.39500
O3278       O  0.25989774  0.16369007  0.79283141    -0.39500
O3279       O  0.15682104  0.05742767  0.81615725    -0.40200
O3280       O  0.13876324  0.09697626  0.82783842    -0.40200
C3281       C  0.15283085  0.28364396  0.98894283    -0.12500
C3282       C  0.13272515  0.29797020  0.97375197     0.04500
C3283       C  0.11149429  0.31179759  0.98821022    -0.07800
C3284       C  0.11039113  0.31030865  0.01709768    -0.08500
C3285       C  0.12975257  0.29471597  0.03208668    -0.03100
C3286       C  0.15136937  0.28168145  0.01766770     0.03700
N3287       N  0.17278817  0.26726386  0.03192377     0.66200
H3288       H  0.16948297  0.27318759  0.97840086     0.15100
H3289       H  0.09406825  0.32107896  0.02783077     0.14800
N3290       N  0.09132483  0.32809105  0.97401944     0.73900
O3291       O  0.17045732  0.24156195  0.03581604    -0.39500
O3292       O  0.19630873  0.27821632  0.03350677    -0.39500
O3293       O  0.06678799  0.31963808  0.97282293    -0.40200
O3294       O  0.09632576  0.35319223  0.96896403    -0.40200
C3295       C  0.18087613  0.20393962  0.89654942    -0.12500
C3296       C  0.18861468  0.23033411  0.88698478     0.04500
C3297       C  0.21527888  0.23340741  0.87593696    -0.07800
C3298       C  0.23356780  0.21124336  0.87570708    -0.08500
C3299       C  0.22660470  0.18534844  0.88655619    -0.03100
C3300       C  0.19952095  0.18149490  0.89631162     0.03700
N3301       N  0.19042828  0.15505532  0.90563788     0.66200
H3302       H  0.16031194  0.20067001  0.90441871     0.15100
H3303       H  0.25398317  0.21497938  0.86762526     0.14800
N3304       N  0.22477906  0.25898049  0.86505187     0.73900
O3305       O  0.18979679  0.15007504  0.93107155    -0.39500
O3306       O  0.17747559  0.13949154  0.88927046    -0.39500
O3307       O  0.23966956  0.27410304  0.88012280    -0.40200
O3308       O  0.22632204  0.26142874  0.83930393    -0.40200
C3309       C  0.14546992  0.18864484  0.79000985    -0.12500
C3310       C  0.12334510  0.17021690  0.78735796     0.04500
C3311       C  0.10322584  0.17036900  0.80834454    -0.07800
C3312       C  0.10314002  0.19178398  0.82830689    -0.08500
C3313       C  0.12353495  0.21248340  0.82843420    -0.03100
C3314       C  0.14589611  0.20932144  0.81006287     0.03700
N3315       N  0.16918327  0.22734393  0.81081208     0.66200
H3316       H  0.16221593  0.18800972  0.77538291     0.15100
H3317       H  0.08636974  0.19293041  0.84283951     0.14800
N3318       N  0.08269804  0.14932776  0.80964810     0.73900
O3319       O  0.19169430  0.21789727  0.81997063    -0.39500
O3320       O  0.16967508  0.24791024  0.79481654    -0.39500
O3321       O  0.08842753  0.12688762  0.82168281    -0.40200
O3322       O  0.05776010  0.15571705  0.80591445    -0.40200
C3323       C  0.38199574  0.48647675  0.80523009    -0.12500
C3324       C  0.36091596  0.47216297  0.79148158     0.04500
C3325       C  0.33883989  0.48786350  0.77999991    -0.07800
C3326       C  0.33891341  0.51688041  0.78158442    -0.08500
C3327       C  0.36045923  0.53111908  0.79449376    -0.03100
C3328       C  0.38179147  0.51545510  0.80716892     0.03700
N3329       N  0.40323859  0.52852677  0.82260568     0.66200
H3330       H  0.39867884  0.47508698  0.81497123     0.15100
H3331       H  0.32226202  0.52834044  0.77186492     0.14800
N3332       N  0.31625098  0.47502657  0.76612993     0.73900
O3333       O  0.39968973  0.53349486  0.84778367    -0.39500
O3334       O  0.42715349  0.52990100  0.81272047    -0.39500
O3335       O  0.29247538  0.47736288  0.77621448    -0.40200
O3336       O  0.31854193  0.46926478  0.74097209    -0.40200
C3337       C  0.35573024  0.23735998  0.85547093    -0.12500
C3338       C  0.33908007  0.23435523  0.87861847     0.04500
C3339       C  0.32945820  0.25834945  0.89215333    -0.07800
C3340       C  0.33410017  0.28436578  0.88054073    -0.08500
C3341       C  0.34831010  0.28672774  0.85576095    -0.03100
C3342       C  0.35995611  0.26309944  0.84357253     0.03700
N3343       N  0.37726711  0.26506031  0.81996094     0.66200
H3344       H  0.36521528  0.21950938  0.84623834     0.15100
H3345       H  0.32664663  0.30275940  0.89089971     0.14800
N3346       N  0.31667611  0.25685239  0.91843762     0.73900
O3347       O  0.40305958  0.26305879  0.82284893    -0.39500
O3348       O  0.36677244  0.26351827  0.79621940    -0.39500
O3349       O  0.33158359  0.25770334  0.93976333    -0.40200
O3350       O  0.29108632  0.26098889  0.92041544    -0.40200
C3351       C  0.23898449  0.32602433  0.84760273    -0.12500
C3352       C  0.22821564  0.33986732  0.87029125     0.04500
C3353       C  0.24481183  0.35891517  0.88460518    -0.07800
C3354       C  0.27167519  0.36401079  0.87576850    -0.08500
C3355       C  0.28245065  0.35016472  0.85288866    -0.03100
C3356       C  0.26610735  0.33034594  0.83919369     0.03700
N3357       N  0.27722216  0.31338420  0.81786627     0.66200
H3358       H  0.22633846  0.31122543  0.83689014     0.15100
H3359       H  0.28371871  0.37971455  0.88621839     0.14800
N3360       N  0.23399927  0.37499184  0.90662570     0.73900
O3361       O  0.28659650  0.28968675  0.82368518    -0.39500
O3362       O  0.27386434  0.32014500  0.79302579    -0.39500
O3363       O  0.24220709  0.37016811  0.93080810    -0.40200
O3364       O  0.22309642  0.39810508  0.90118427    -0.40200
C3365       C  0.19229324  0.48597471  0.61625952    -0.12500
C3366       C  0.20668021  0.47169241  0.63693221     0.04500
C3367       C  0.22052739  0.48682003  0.65767572    -0.07800
C3368       C  0.22056504  0.51569662  0.65664802    -0.08500
C3369       C  0.20739832  0.52985968  0.63509285    -0.03100
C3370       C  0.19258583  0.51477261  0.61509583     0.03700
N3371       N  0.17709437  0.52829752  0.59389970     0.66200
H3372       H  0.18090949  0.47471424  0.60065223     0.15100
H3373       H  0.23202621  0.52703083  0.67214410     0.14800
N3374       N  0.23634632  0.47336122  0.67870521     0.73900
O3375       O  0.18687829  0.52948396  0.56998745    -0.39500
O3376       O  0.15167253  0.53254481  0.59729810    -0.39500
O3377       O  0.26163822  0.46876234  0.67483551    -0.40200
O3378       O  0.22688438  0.47194093  0.70274514    -0.40200
C3379       C  0.20671540  0.34083321  0.51595884    -0.12500
C3380       C  0.20180935  0.36645656  0.52861918     0.04500
C3381       C  0.19952068  0.39029870  0.51182632    -0.07800
C3382       C  0.20240005  0.38797930  0.48324183    -0.08500
C3383       C  0.20782677  0.36232441  0.47066197    -0.03100
C3384       C  0.21003677  0.33855995  0.48756431     0.03700
N3385       N  0.21718146  0.31206485  0.47666766     0.66200
H3386       H  0.20888941  0.32223826  0.52825824     0.15100
H3387       H  0.20049127  0.40654473  0.47086261     0.14800
N3388       N  0.19439616  0.41705361  0.52325524     0.73900
O3389       O  0.24228689  0.30537273  0.47524004    -0.39500
O3390       O  0.19910499  0.29339090  0.47544210    -0.39500
O3391       O  0.21425885  0.43346087  0.52694400    -0.40200
O3392       O  0.17006191  0.42631654  0.52372863    -0.40200
C3393       C  0.18139183  0.34806003  0.74414150    -0.12500
C3394       C  0.15919870  0.34808523  0.72565768     0.04500
C3395       C  0.13203352  0.34535997  0.73581934    -0.07800
C3396       C  0.12781026  0.34296677  0.76409561    -0.08500
C3397       C  0.15016650  0.34298314  0.78243590    -0.03100
C3398       C  0.17703512  0.34549264  0.77230752     0.03700
N3399       N  0.20029309  0.34407877  0.79018132     0.66200
H3400       H  0.20230803  0.35027038  0.73679394     0.15100
H3401       H  0.10705637  0.34014549  0.77170778     0.14800
N3402       N  0.10861083  0.34453506  0.71778648     0.73900
O3403       O  0.21556999  0.32298068  0.78896959    -0.39500
O3404       O  0.20967517  0.36613945  0.80040601    -0.39500
O3405       O  0.10385019  0.32319991  0.70360116    -0.40200
O3406       O  0.09386910  0.36586374  0.71449695    -0.40200
C3407       C  0.16166291  0.24856151  0.61761131    -0.12500
C3408       C  0.16668418  0.26912677  0.63729069     0.04500
C3409       C  0.16791840  0.26175628  0.66530947    -0.07800
C3410       C  0.16269140  0.23456308  0.67318010    -0.08500
C3411       C  0.15643571  0.21411447  0.65370470    -0.03100
C3412       C  0.15640737  0.22126381  0.62548741     0.03700
N3413       N  0.15012260  0.20150721  0.60455206     0.66200
H3414       H  0.16077572  0.25386943  0.59597876     0.15100
H3415       H  0.16307586  0.22964475  0.69490758     0.14800
N3416       N  0.17431297  0.28151586  0.68619506     0.73900
O3417       O  0.12579539  0.20000246  0.59535228    -0.39500
O3418       O  0.16950716  0.19076530  0.59104806    -0.39500
O3419       O  0.15581904  0.28839737  0.70295159    -0.40200
O3420       O  0.19919572  0.28593396  0.69236295    -0.40200
C3421       C  0.27041533  0.39792652  0.70441062    -0.12500
C3422       C  0.27829837  0.39148763  0.67752019     0.04500
C3423       C  0.30635194  0.38579180  0.67228289    -0.07800
C3424       C  0.32556563  0.38536866  0.69426448    -0.08500
C3425       C  0.31697129  0.38990929  0.72144280    -0.03100
C3426       C  0.28913940  0.39684767  0.72622093     0.03700
N3427       N  0.27923053  0.40226197  0.75329528     0.66200
H3428       H  0.24899649  0.40253020  0.70881672     0.15100
H3429       H  0.34686538  0.37998205  0.69029321     0.14800
N3430       N  0.31529092  0.37834988  0.64541209     0.73900
O3431       O  0.27298077  0.42673745  0.75974507    -0.39500
O3432       O  0.26953371  0.38257211  0.76721426    -0.39500
O3433       O  0.32652567  0.39641800  0.63053559    -0.40200
O3434       O  0.31852739  0.35310789  0.63964788    -0.40200
C3435       C  0.36475195  0.18699045  0.47538675    -0.12500
C3436       C  0.39005255  0.19395234  0.46379550     0.04500
C3437       C  0.41073821  0.20498172  0.48116494    -0.07800
C3438       C  0.40561697  0.20907980  0.50936025    -0.08500
C3439       C  0.37954160  0.20379465  0.52074358    -0.03100
C3440       C  0.35893679  0.19254077  0.50309392     0.03700
N3441       N  0.33151604  0.18739160  0.51223173     0.66200
H3442       H  0.34828224  0.17956498  0.46219269     0.15100
H3443       H  0.42186105  0.21759902  0.52214351     0.14800
N3444       N  0.43684440  0.21288343  0.47032024     0.73900
O3445       O  0.31542809  0.20767228  0.51555551    -0.39500
O3446       O  0.32124933  0.16390042  0.50764594    -0.39500
O3447       O  0.44158378  0.23808429  0.46551980    -0.40200
O3448       O  0.45667799  0.19595246  0.47126931    -0.40200
C3449       C  0.35196654  0.17994393  0.74900962    -0.12500
C3450       C  0.34934306  0.16252029  0.72619512     0.04500
C3451       C  0.33584992  0.13679487  0.72978934    -0.07800
C3452       C  0.32682587  0.12873528  0.75601250    -0.08500
C3453       C  0.32975200  0.14618118  0.77906176    -0.03100
C3454       C  0.34208825  0.17232196  0.77491403     0.03700
N3455       N  0.34726939  0.19061821  0.79719319     0.66200
H3456       H  0.36229507  0.19966399  0.74699812     0.15100
H3457       H  0.31819379  0.10823721  0.75841290     0.14800
N3458       N  0.33189670  0.11810415  0.70734571     0.73900
O3459       O  0.37184123  0.19369670  0.80517920    -0.39500
O3460       O  0.32957394  0.20890586  0.80283886    -0.39500
O3461       O  0.35168314  0.10342839  0.69895067    -0.40200
O3462       O  0.30855330  0.11620389  0.69592242    -0.40200
C3463       C  0.26369078  0.17607615  0.66732213    -0.12500
C3464       C  0.27608954  0.15969792  0.64732329     0.04500
C3465       C  0.26133722  0.13881191  0.63390226    -0.07800
C3466       C  0.23383200  0.13493065  0.63994444    -0.08500
C3467       C  0.22105220  0.15104169  0.66001137    -0.03100
C3468       C  0.23624099  0.17156020  0.67425225     0.03700
N3469       N  0.22415921  0.18833203  0.69515577     0.66200
H3470       H  0.27525866  0.19239018  0.67738230     0.15100
H3471       H  0.22273143  0.11848205  0.62956788     0.14800
N3472       N  0.27397880  0.12165295  0.61372296     0.73900
O3473       O  0.21878070  0.21332161  0.68978123    -0.39500
O3474       O  0.22703852  0.18114734  0.71994495    -0.39500
O3475       O  0.28636150  0.09987654  0.62119184    -0.40200
O3476       O  0.26714625  0.12463398  0.58886922    -0.40200
C3477       C  0.28674523  0.31728842  0.58632350    -0.12500
C3478       C  0.27088406  0.31854000  0.61058261     0.04500
C3479       C  0.27864587  0.30125987  0.63268993    -0.07800
C3480       C  0.30027967  0.28217641  0.62968822    -0.08500
C3481       C  0.31531467  0.27999450  0.60522141    -0.03100
C3482       C  0.30873432  0.29820972  0.58352589     0.03700
N3483       N  0.32250985  0.29588250  0.55779742     0.66200
H3484       H  0.28127204  0.33029574  0.56897179     0.15100
H3485       H  0.30493256  0.26819659  0.64644170     0.14800
N3486       N  0.26502733  0.30298232  0.65853556     0.73900
O3487       O  0.31438607  0.27834991  0.54035842    -0.39500
O3488       O  0.34510030  0.30818037  0.55424941    -0.39500
O3489       O  0.25038686  0.28300908  0.66638792    -0.40200
O3490       O  0.27287564  0.32077179  0.67583884    -0.40200
C3491       C  0.39173384  0.29919765  0.67777094    -0.12500
C3492       C  0.37141919  0.27828891  0.67886633     0.04500
C3493       C  0.35274658  0.27924845  0.70111367    -0.07800
C3494       C  0.35522678  0.29975543  0.72143382    -0.08500
C3495       C  0.37640300  0.31969567  0.72128842    -0.03100
C3496       C  0.39446398  0.31954882  0.69858371     0.03700
N3497       N  0.41648810  0.33895629  0.69677185     0.66200
H3498       H  0.40647580  0.29917145  0.66116088     0.15100
H3499       H  0.34068497  0.29926361  0.73822423     0.14800
N3500       N  0.33179263  0.25883989  0.70451131     0.73900
O3501       O  0.44010298  0.33209591  0.70540536    -0.39500
O3502       O  0.41415645  0.35928130  0.68063030    -0.39500
O3503       O  0.33582730  0.23953865  0.72153951    -0.40200
O3504       O  0.30736509  0.26473993  0.69765623    -0.40200
C3505       C  0.89813739  0.26324419  0.98260675    -0.12500
C3506       C  0.88531796  0.28582604  0.96955919     0.04500
C3507       C  0.87535457  0.30767107  0.98605860    -0.07800
C3508       C  0.87783464  0.30649088  0.01469001    -0.08500
C3509       C  0.88900984  0.28325365  0.02803063    -0.03100
C3510       C  0.89951506  0.26145661  0.01153322     0.03700
N3511       N  0.91037805  0.23675513  0.02362945     0.66200
H3512       H  0.90543591  0.24601331  0.97038078     0.15100
H3513       H  0.86933436  0.32340778  0.02657376     0.14800
N3514       N  0.86123256  0.33076003  0.97427242     0.73900
O3515       O  0.89470791  0.21624529  0.02695995    -0.39500
O3516       O  0.93613569  0.23327537  0.02480822    -0.39500
O3517       O  0.83574999  0.33332499  0.97857892    -0.40200
O3518       O  0.87493386  0.35171812  0.96724486    -0.40200
C3519       C  0.98886694  0.29836004  0.89283626    -0.12500
C3520       C  0.97339212  0.27697683  0.88096653     0.04500
C3521       C  0.98707875  0.25686767  0.86492700    -0.07800
C3522       C  0.01550682  0.25956711  0.85980864    -0.08500
C3523       C  0.03041429  0.28196286  0.87065764    -0.03100
C3524       C  0.01680752  0.30126819  0.88748659     0.03700
N3525       N  0.03071975  0.32517972  0.89776521     0.66200
H3526       H  0.97872689  0.31424907  0.90486769     0.15100
H3527       H  0.02598866  0.24399599  0.84770122     0.14800
N3528       N  0.97239389  0.23423908  0.85302128     0.73900
O3529       O  0.03130173  0.34680784  0.88324832    -0.39500
O3530       O  0.03634457  0.32678497  0.92303863    -0.39500
O3531       O  0.96792866  0.23394839  0.82748384    -0.40200
O3532       O  0.96986511  0.21212233  0.86654881    -0.40200
C3533       C  0.73188225  0.14749761  0.98514161    -0.12500
C3534       C  0.71325629  0.13140646  0.97014946     0.04500
C3535       C  0.69395616  0.11491884  0.98427904    -0.07800
C3536       C  0.69372536  0.11490259  0.01309852    -0.08500
C3537       C  0.71236959  0.13123654  0.02799528    -0.03100
C3538       C  0.73183927  0.14732193  0.01373195     0.03700
N3539       N  0.75264069  0.16263342  0.02790856     0.66200
H3540       H  0.74712885  0.15984148  0.97458607     0.15100
H3541       H  0.67841505  0.10279208  0.02382751     0.14800
N3542       N  0.67333135  0.09964322  0.96979491     0.73900
O3543       O  0.77449048  0.15037969  0.03524388    -0.39500
O3544       O  0.75248941  0.18869040  0.02625977    -0.39500
O3545       O  0.67638535  0.07391571  0.96658692    -0.40200
O3546       O  0.64971071  0.11018799  0.96664732    -0.40200
C3547       C  0.69759915  0.98745120  0.87868396    -0.12500
C3548       C  0.70695153  0.97439853  0.85473389     0.04500
C3549       C  0.71344288  0.99092505  0.83166783    -0.07800
C3550       C  0.71169687  0.01984470  0.83356789    -0.08500
C3551       C  0.70389500  0.03279696  0.85817454    -0.03100
C3552       C  0.69614242  0.01615505  0.88068466     0.03700
N3553       N  0.68711067  0.02790100  0.90602408     0.66200
H3554       H  0.69182797  0.97532240  0.89647162     0.15100
H3555       H  0.71763401  0.03220844  0.81600287     0.14800
N3556       N  0.72317353  0.97899271  0.80667948     0.73900
O3557       O  0.66166678  0.03142139  0.90995445    -0.39500
O3558       O  0.70348597  0.02852142  0.92626602    -0.39500
O3559       O  0.70719661  0.97774105  0.78615979    -0.40200
O3560       O  0.74876019  0.97597237  0.80324009    -0.40200
C3561       C  0.83238927  0.18875593  0.90333059    -0.12500
C3562       C  0.83362721  0.20901716  0.88272453     0.04500
C3563       C  0.81518436  0.20748942  0.86019170    -0.07800
C3564       C  0.79436499  0.18776910  0.86013425    -0.08500
C3565       C  0.79051056  0.17012089  0.88262236    -0.03100
C3566       C  0.81080978  0.16938879  0.90359284     0.03700
N3567       N  0.80835243  0.15128112  0.92662991     0.66200
H3568       H  0.84655287  0.18961590  0.92061984     0.15100
H3569       H  0.77951208  0.18806734  0.84343127     0.14800
N3570       N  0.81541123  0.22749510  0.83849284     0.73900
O3571       O  0.82200219  0.12901419  0.92705714    -0.39500
O3572       O  0.79827567  0.16040008  0.94868001    -0.39500
O3573       O  0.82351389  0.22023347  0.81500022    -0.40200
O3574       O  0.80021539  0.24862413  0.84049521    -0.40200
C3575       C  0.02110761  0.10842152  0.69800579    -0.12500
C3576       C  0.03466173  0.13081293  0.71071780     0.04500
C3577       C  0.01854067  0.15196781  0.72269106    -0.07800
C3578       C  0.98980468  0.15016923  0.72191053    -0.08500
C3579       C  0.97627088  0.12773372  0.70942395    -0.03100
C3580       C  0.99224048  0.10672887  0.69725677     0.03700
N3581       N  0.97960319  0.08423371  0.68300333     0.66200
H3582       H  0.03296907  0.09209564  0.68838265     0.15100
H3583       H  0.97792865  0.16650595  0.73152829     0.14800
N3584       N  0.03073260  0.17475097  0.73700113     0.73900
O3585       O  0.97558931  0.08611354  0.65743604    -0.39500
O3586       O  0.97860382  0.06077628  0.69434574    -0.39500
O3587       O  0.03641064  0.19657244  0.72401676    -0.40200
O3588       O  0.02869581  0.17587781  0.76277138    -0.40200
C3589       C  0.84429667  0.98349749  0.70581415    -0.12500
C3590       C  0.86972492  0.97038271  0.70029265     0.04500
C3591       C  0.89309005  0.98711188  0.69638998    -0.07800
C3592       C  0.89090794  0.01586188  0.69927959    -0.08500
C3593       C  0.86569924  0.02886930  0.70584464    -0.03100
C3594       C  0.84207067  0.01228961  0.70847499     0.03700
N3595       N  0.81572435  0.02412309  0.71424042     0.66200
H3596       H  0.82578652  0.97133356  0.70838769     0.15100
H3597       H  0.90936224  0.02805186  0.69635832     0.14800
N3598       N  0.91917576  0.97549465  0.68924740     0.73900
O3599       O  0.79912377  0.02888050  0.69473036    -0.39500
O3600       O  0.80701812  0.02423302  0.73860264    -0.39500
O3601       O  0.92614580  0.97484377  0.66432628    -0.40200
O3602       O  0.93737279  0.97247166  0.70765063    -0.40200
C3603       C  0.80762845  0.05219066  0.62192308    -0.12500
C3604       C  0.82764460  0.07170116  0.61394850     0.04500
C3605       C  0.83089042  0.07660132  0.58540014    -0.07800
C3606       C  0.81459084  0.06242094  0.56601276    -0.08500
C3607       C  0.79347114  0.04437637  0.57403102    -0.03100
C3608       C  0.78994804  0.03940998  0.60254435     0.03700
N3609       N  0.76717978  0.02336049  0.61235259     0.66200
H3610       H  0.80386250  0.04876946  0.64354255     0.15100
H3611       H  0.81744921  0.06699849  0.54442397     0.14800
N3612       N  0.84958381  0.09707411  0.57555090     0.73900
O3613       O  0.76989121  0.99775558  0.61656856    -0.39500
O3614       O  0.74367929  0.03431561  0.61479530    -0.39500
O3615       O  0.87323680  0.08971302  0.56776665    -0.40200
O3616       O  0.84031087  0.12040764  0.56824587    -0.40200
C3617       C  0.79508562  0.13968115  0.77083177    -0.12500
C3618       C  0.81708007  0.12072893  0.77280559     0.04500
C3619       C  0.81757395  0.10262935  0.79578773    -0.07800
C3620       C  0.79617507  0.10337653  0.81534632    -0.08500
C3621       C  0.77359775  0.12163751  0.81271133    -0.03100
C3622       C  0.77371532  0.14036670  0.79020370     0.03700
N3623       N  0.75220502  0.16027852  0.78631615     0.66200
H3624       H  0.79413693  0.15408448  0.75376786     0.15100
H3625       H  0.79687513  0.08881876  0.83227645     0.14800
N3626       N  0.83899187  0.08253788  0.79917682     0.73900
O3627       O  0.75593496  0.18480380  0.79434749    -0.39500
O3628       O  0.73321286  0.15535166  0.76918788    -0.39500
O3629       O  0.85745984  0.08637386  0.81712681    -0.40200
O3630       O  0.83598967  0.05874203  0.78895172    -0.40200
C3631       C  0.91147502  0.21131719  0.76596247    -0.12500
C3632       C  0.89792588  0.18657689  0.77269793     0.04500
C3633       C  0.88525312  0.18475046  0.79861937    -0.07800
C3634       C  0.88511932  0.20780660  0.81634807    -0.08500
C3635       C  0.89752274  0.23306551  0.80906704    -0.03100
C3636       C  0.91174740  0.23423442  0.78379139     0.03700
N3637       N  0.92524673  0.25888754  0.77493085     0.66200
H3638       H  0.92143960  0.21314198  0.74617756     0.15100
H3639       H  0.87493767  0.20592377  0.83598427     0.14800
N3640       N  0.87120090  0.16027930  0.80687642     0.73900
O3641       O  0.95012303  0.26265660  0.78156391    -0.39500
O3642       O  0.91559916  0.27173682  0.75445444    -0.39500
O3643       O  0.84537933  0.16116815  0.80952395    -0.40200
O3644       O  0.88464179  0.14156248  0.81916688    -0.40200
C3645       C  0.50864009  0.21514063  0.66307733    -0.12500
C3646       C  0.52195820  0.20272848  0.64047972     0.04500
C3647       C  0.50548582  0.19055796  0.61984184    -0.07800
C3648       C  0.47676545  0.19246834  0.62117714    -0.08500
C3649       C  0.46335018  0.20667135  0.64257023    -0.03100
C3650       C  0.47962507  0.21736200  0.66421850     0.03700
N3651       N  0.46737690  0.23232722  0.68632844     0.66200
H3652       H  0.52084036  0.22443547  0.67932899     0.15100
H3653       H  0.46482861  0.18322079  0.60468985     0.14800
N3654       N  0.51746512  0.17599730  0.59731172     0.73900
O3655       O  0.46521546  0.22094032  0.70953577    -0.39500
O3656       O  0.46485974  0.25825835  0.68450200    -0.39500
O3657       O  0.51936599  0.14996638  0.59840825    -0.40200
O3658       O  0.51962953  0.18800085  0.57439618    -0.40200
C3659       C  0.60421827  0.19722663  0.51552740    -0.12500
C3660       C  0.62036862  0.21615850  0.53000271     0.04500
C3661       C  0.63085800  0.23948837  0.51621190    -0.07800
C3662       C  0.62596794  0.24284707  0.48795437    -0.08500
C3663       C  0.61122457  0.22290206  0.47296657    -0.03100
C3664       C  0.59993248  0.19996281  0.48728233     0.03700
N3665       N  0.58488783  0.17854366  0.47359357     0.66200
H3666       H  0.59559535  0.17952470  0.52611103     0.15100
H3667       H  0.63515206  0.26028871  0.47745635     0.14800
N3668       N  0.64625801  0.26007221  0.53061893     0.73900
O3669       O  0.59803822  0.15825814  0.46386779    -0.39500
O3670       O  0.55990089  0.17517219  0.47970201    -0.39500
O3671       O  0.67211350  0.26064866  0.52822629    -0.40200
O3672       O  0.63389472  0.28083854  0.54034912    -0.40200
C3673       C  0.75624964  0.16101037  0.67739682    -0.12500
C3674       C  0.76399938  0.13385812  0.67057832     0.04500
C3675       C  0.74508420  0.11677602  0.65713132    -0.07800
C3676       C  0.71904198  0.12679597  0.64999293    -0.08500
C3677       C  0.71100989  0.15390241  0.65644267    -0.03100
C3678       C  0.72986431  0.17112762  0.67074034     0.03700
N3679       N  0.72270169  0.19870578  0.67871798     0.66200
H3680       H  0.77088816  0.17452571  0.68758484     0.15100
H3681       H  0.70533630  0.11339387  0.63845974     0.14800
N3682       N  0.75336268  0.09053557  0.64706315     0.73900
O3683       O  0.71193549  0.20272098  0.70190570    -0.39500
O3684       O  0.73285787  0.21894737  0.66594278    -0.39500
O3685       O  0.75015255  0.06930453  0.66178634    -0.40200
O3686       O  0.75782690  0.08805951  0.62170725    -0.40200
C3687       C  0.66287176  0.12881793  0.75263984    -0.12500
C3688       C  0.65384067  0.14083119  0.77704165     0.04500
C3689       C  0.63204333  0.16039873  0.77613846    -0.07800
C3690       C  0.62147060  0.16898751  0.75073988    -0.08500
C3691       C  0.63092758  0.15709552  0.72631297    -0.03100
C3692       C  0.65097900  0.13588454  0.72763568     0.03700
N3693       N  0.65788013  0.11943356  0.70435112     0.66200
H3694       H  0.67856905  0.11280366  0.75291105     0.15100
H3695       H  0.60528827  0.18449475  0.75023014     0.14800
N3696       N  0.61893500  0.17017568  0.80051150     0.73900
O3697       O  0.68270010  0.11817215  0.69702268    -0.39500
O3698       O  0.64191089  0.09999686  0.69770506    -0.39500
O3699       O  0.61915704  0.19571580  0.80581987    -0.40200
O3700       O  0.60107645  0.15510599  0.81177578    -0.40200
C3701       C  0.69024332  0.10176861  0.53577773    -0.12500
C3702       C  0.68455783  0.07459656  0.54451435     0.04500
C3703       C  0.66306909  0.07085363  0.56373689    -0.07800
C3704       C  0.64925330  0.09406151  0.57482814    -0.08500
C3705       C  0.65631033  0.12127158  0.56721026    -0.03100
C3706       C  0.67640385  0.12477092  0.54668140     0.03700
N3707       N  0.68324796  0.15170684  0.53675574     0.66200
H3708       H  0.70599652  0.10536379  0.52052057     0.15100
H3709       H  0.63416594  0.09078339  0.59080562     0.14800
N3710       N  0.65630239  0.04394474  0.57377055     0.73900
O3711       O  0.70476246  0.16347488  0.54548690    -0.39500
O3712       O  0.67141650  0.16081822  0.51541306    -0.39500
O3713       O  0.66651432  0.03573927  0.59626765    -0.40200
O3714       O  0.63591646  0.03132703  0.56362727    -0.40200
C3715       C  0.51141090  0.34033185  0.78528148    -0.12500
C3716       C  0.52569571  0.36379293  0.79453477     0.04500
C3717       C  0.51032105  0.38646437  0.80474773    -0.07800
C3718       C  0.48150023  0.38564794  0.80445281    -0.08500
C3719       C  0.46717570  0.36248809  0.79450489    -0.03100
C3720       C  0.48256418  0.33929058  0.78551766     0.03700
N3721       N  0.46944975  0.31451082  0.77631457     0.66200
H3722       H  0.52265796  0.32252073  0.77771355     0.15100
H3723       H  0.47028039  0.40349704  0.81197546     0.14800
N3724       N  0.52347235  0.41069274  0.81528544     0.73900
O3725       O  0.46826130  0.30943080  0.75092901    -0.39500
O3726       O  0.46558442  0.29510551  0.79320409    -0.39500
O3727       O  0.52566283  0.43176211  0.80013050    -0.40200
O3728       O  0.52741365  0.41299724  0.84083003    -0.40200
C3729       C  0.61263048  0.51542371  0.81495556    -0.12500
C3730       C  0.62384096  0.53026429  0.79287446     0.04500
C3731       C  0.63714609  0.51520129  0.77181495    -0.07800
C3732       C  0.63957669  0.48630220  0.77350044    -0.08500
C3733       C  0.62779013  0.47130746  0.79499753    -0.03100
C3734       C  0.61371209  0.48619512  0.81572025     0.03700
N3735       N  0.60039559  0.47203652  0.83766947     0.66200
H3736       H  0.60226423  0.52649728  0.83127210     0.15100
H3737       H  0.64984093  0.47535343  0.75714899     0.14800
N3738       N  0.64880815  0.52889108  0.74862960     0.73900
O3739       O  0.61257224  0.46975343  0.86052900    -0.39500
O3740       O  0.57474985  0.46797954  0.83631974    -0.39500
O3741       O  0.67465765  0.52934295  0.74614445    -0.40200
O3742       O  0.63385513  0.53348212  0.72779617    -0.40200
C3743       C  0.73276824  0.36885400  0.85070317    -0.12500
C3744       C  0.71644525  0.34683674  0.84150075     0.04500
C3745       C  0.72866979  0.32067752  0.83753876    -0.07800
C3746       C  0.75638831  0.31656618  0.84403107    -0.08500
C3747       C  0.77288806  0.33866440  0.85216665    -0.03100
C3748       C  0.76095973  0.36516328  0.85541083     0.03700
N3749       N  0.77710869  0.38843698  0.86364327     0.66200
H3750       H  0.72377777  0.38924780  0.85334940     0.15100
H3751       H  0.76541239  0.29624674  0.84108476     0.14800
N3752       N  0.71372395  0.29799709  0.82650745     0.73900
O3753       O  0.78587788  0.40522199  0.84588519    -0.39500
O3754       O  0.78234297  0.39243564  0.88871555    -0.39500
O3755       O  0.71107939  0.29644422  0.80074351    -0.40200
O3756       O  0.71282453  0.27606709  0.84054958    -0.40200
C3757       C  0.65927062  0.26200612  0.82207549    -0.12500
C3758       C  0.64474181  0.27761554  0.84167248     0.04500
C3759       C  0.63360398  0.26368799  0.86454397    -0.07800
C3760       C  0.63964578  0.23557396  0.86873651    -0.08500
C3761       C  0.65708678  0.22120736  0.85079816    -0.03100
C3762       C  0.66667577  0.23450838  0.82704168     0.03700
N3763       N  0.68413930  0.22054913  0.80790971     0.66200
H3764       H  0.66606210  0.27149147  0.80317236     0.15100
H3765       H  0.63148187  0.22520238  0.88667830     0.14800
N3766       N  0.61448182  0.27699919  0.88241491     0.73900
O3767       O  0.67427716  0.21250909  0.78524806    -0.39500
O3768       O  0.70994265  0.22227745  0.81071328    -0.39500
O3769       O  0.58972861  0.26909548  0.88255566    -0.40200
O3770       O  0.62319873  0.29242996  0.90144675    -0.40200
C3771       C  0.63305500  0.30123885  0.71827220    -0.12500
C3772       C  0.61095125  0.32030573  0.71945054     0.04500
C3773       C  0.58894283  0.31679798  0.70065021    -0.07800
C3774       C  0.58898670  0.29402019  0.68237417    -0.08500
C3775       C  0.61041196  0.27411409  0.68272711    -0.03100
C3776       C  0.63289608  0.27846271  0.70061379     0.03700
N3777       N  0.65571349  0.25968371  0.70158184     0.66200
H3778       H  0.65041483  0.30313298  0.73224899     0.15100
H3779       H  0.57147560  0.29120984  0.66874535     0.14800
N3780       N  0.56564433  0.33490841  0.70093262     0.73900
O3781       O  0.67659818  0.26435603  0.68701630    -0.39500
O3782       O  0.65730535  0.24211265  0.72073391    -0.39500
O3783       O  0.56348850  0.35349129  0.68281352    -0.40200
O3784       O  0.54476980  0.32839872  0.71481046    -0.40200
C3785       C  0.80016769  0.47744081  0.61231555    -0.12500
C3786       C  0.79713647  0.46344456  0.63734197     0.04500
C3787       C  0.79567567  0.47915531  0.66186272    -0.07800
C3788       C  0.79655145  0.50804406  0.66072682    -0.08500
C3789       C  0.79818655  0.52205832  0.63556993    -0.03100
C3790       C  0.80056565  0.50629319  0.61113247     0.03700
N3791       N  0.80243364  0.51900381  0.58470361     0.66200
H3792       H  0.80152521  0.46599470  0.59322917     0.15100
H3793       H  0.79516574  0.51954078  0.67975917     0.14800
N3794       N  0.79206325  0.46637597  0.68806695     0.73900
O3795       O  0.82583223  0.52257691  0.57414694    -0.39500
O3796       O  0.78118593  0.52047659  0.56967529    -0.39500
O3797       O  0.81243134  0.46396910  0.70414824    -0.40200
O3798       O  0.76802859  0.46301534  0.69721081    -0.40200
C3799       C  0.81323562  0.34494250  0.51660483    -0.12500
C3800       C  0.80422947  0.36934980  0.52963332     0.04500
C3801       C  0.79672372  0.39189184  0.51246389    -0.07800
C3802       C  0.79848974  0.38966262  0.48348507    -0.08500
C3803       C  0.80670043  0.36491825  0.47040617    -0.03100
C3804       C  0.81408774  0.34237960  0.48765882     0.03700
N3805       N  0.82312919  0.31671922  0.47635575     0.66200
H3806       H  0.81873162  0.32711539  0.52902303     0.15100
H3807       H  0.79248185  0.40733072  0.47106947     0.14800
N3808       N  0.78736140  0.41737506  0.52400713     0.73900
O3809       O  0.84844244  0.31083571  0.47754068    -0.39500
O3810       O  0.80590456  0.29745408  0.47320028    -0.39500
O3811       O  0.80408041  0.43713900  0.52674751    -0.40200
O3812       O  0.76182398  0.42212624  0.52538927    -0.40200
C3813       C  0.81917124  0.32115102  0.74163938    -0.12500
C3814       C  0.83968020  0.32761696  0.72242261     0.04500
C3815       C  0.86744973  0.32480387  0.73053968    -0.07800
C3816       C  0.87414474  0.31893722  0.75776905    -0.08500
C3817       C  0.85385458  0.31452956  0.77762362    -0.03100
C3818       C  0.82597493  0.31425581  0.76893501     0.03700
N3819       N  0.80413442  0.30879143  0.78758581     0.66200
H3820       H  0.79763235  0.32208506  0.73568847     0.15100
H3821       H  0.89572255  0.31930662  0.76356127     0.14800
N3822       N  0.88946480  0.32949891  0.71198387     0.73900
O3823       O  0.78688698  0.32774432  0.79231293    -0.39500
O3824       O  0.79753407  0.28399809  0.79222249    -0.39500
O3825       O  0.90308802  0.35155179  0.71430921    -0.40200
O3826       O  0.90027238  0.30893847  0.70023549    -0.40200
C3827       C  0.82803617  0.26522180  0.68520667    -0.12500
C3828       C  0.81278389  0.26905581  0.66089025     0.04500
C3829       C  0.80440846  0.24606153  0.64523917    -0.07800
C3830       C  0.81281234  0.21963177  0.65325357    -0.08500
C3831       C  0.83029967  0.21631417  0.67600467    -0.03100
C3832       C  0.83703998  0.23890279  0.69263224     0.03700
N3833       N  0.85507469  0.23606183  0.71582905     0.66200
H3834       H  0.83495456  0.28149410  0.69611578     0.15100
H3835       H  0.80810521  0.20223266  0.64018677     0.14800
N3836       N  0.79088750  0.24933328  0.61929998     0.73900
O3837       O  0.88071471  0.23855068  0.71254802    -0.39500
O3838       O  0.84526380  0.23750375  0.73971713    -0.39500
O3839       O  0.80446190  0.24603417  0.59750767    -0.40200
O3840       O  0.76498832  0.24796556  0.61832458    -0.40200
C3841       C  0.69884302  0.40903703  0.68222784    -0.12500
C3842       C  0.71388968  0.38434054  0.67875585     0.04500
C3843       C  0.70432921  0.36013400  0.69171635    -0.07800
C3844       C  0.68212321  0.36150742  0.70973851    -0.08500
C3845       C  0.66893967  0.38667759  0.71584046    -0.03100
C3846       C  0.67649079  0.41041620  0.70066895     0.03700
N3847       N  0.66390726  0.43660957  0.70576944     0.66200
H3848       H  0.70568487  0.42780433  0.67219785     0.15100
H3849       H  0.67652141  0.34289555  0.72071331     0.14800
N3850       N  0.71774288  0.33406142  0.68776442     0.73900
O3851       O  0.67701641  0.45433479  0.71959915    -0.39500
O3852       O  0.64426897  0.44449516  0.69051395    -0.39500
O3853       O  0.73229473  0.32391885  0.70688184    -0.40200
O3854       O  0.71052661  0.31888959  0.66791848    -0.40200
C3855       C  0.72174553  0.28659151  0.58886752    -0.12500
C3856       C  0.71844888  0.31485107  0.59459991     0.04500
C3857       C  0.69138456  0.32437844  0.60094243    -0.07800
C3858       C  0.66953381  0.30545301  0.60422840    -0.08500
C3859       C  0.67390645  0.27697791  0.60142463    -0.03100
C3860       C  0.70019556  0.26767927  0.59269243     0.03700
N3861       N  0.70567075  0.23888498  0.58818652     0.66200
H3862       H  0.74168402  0.27876017  0.58271209     0.15100
H3863       H  0.64942697  0.31299372  0.61031751     0.14800
N3864       N  0.68554916  0.35313586  0.60438500     0.73900
O3865       O  0.71113287  0.23058613  0.56426294    -0.39500
O3866       O  0.71170813  0.22355848  0.60834881    -0.39500
O3867       O  0.67668522  0.36682476  0.58406752    -0.40200
O3868       O  0.68192409  0.36251240  0.62826141    -0.40200
C3869       C  0.56064895  0.71801802  0.90296719    -0.12500
C3870       C  0.55183588  0.70444803  0.92689011     0.04500
C3871       C  0.56024857  0.67664701  0.93105023    -0.07800
C3872       C  0.57648093  0.66309217  0.91118998    -0.08500
C3873       C  0.58488379  0.67681768  0.88720308    -0.03100
C3874       C  0.57723107  0.70487654  0.88361462     0.03700
N3875       N  0.58778321  0.72115691  0.86149198     0.66200
H3876       H  0.55556079  0.73960503  0.89951856     0.15100
H3877       H  0.58233247  0.64167570  0.91445999     0.14800
N3878       N  0.55244927  0.66176655  0.95510706     0.73900
O3879       O  0.57236450  0.72680325  0.84128436    -0.39500
O3880       O  0.60909925  0.73551764  0.86548312    -0.39500
O3881       O  0.53216199  0.64553543  0.95398819    -0.40200
O3882       O  0.56907501  0.66014419  0.97509478    -0.40200
C3883       C  0.60353923  0.79939042  0.95513061    -0.12500
C3884       C  0.57589199  0.80730273  0.95029036     0.04500
C3885       C  0.57058897  0.82805194  0.93055738    -0.07800
C3886       C  0.59251382  0.83983445  0.91585084    -0.08500
C3887       C  0.62010824  0.83194562  0.92094545    -0.03100
C3888       C  0.62544956  0.81160518  0.94092656     0.03700
N3889       N  0.65255225  0.80058416  0.94470367     1.20200
H3890       H  0.60827655  0.78288659  0.96931975     0.15100
H3891       H  0.58805728  0.85310455  0.90035064     0.14800
N3892       N  0.54306912  0.83605606  0.92325257     0.73900
O3893       O  0.66971649  0.81340240  0.95947742    -0.39500
O3894       O  0.65757683  0.77598047  0.93761350    -0.39500
O3895       O  0.53435420  0.85971483  0.92995653    -0.40200
O3896       O  0.53000154  0.82227731  0.90544218    -0.40200
C3897       C  0.46479472  0.69900843  0.90679442    -0.12500
C3898       C  0.45566657  0.69829128  0.93410634     0.04500
C3899       C  0.43187480  0.68308357  0.94023280    -0.07800
C3900       C  0.41660523  0.67086723  0.91899937    -0.08500
C3901       C  0.42478924  0.67282081  0.89129395    -0.03100
C3902       C  0.44977845  0.68640664  0.88552645     0.03700
N3903       N  0.46080568  0.68707493  0.85849578     0.66200
H3904       H  0.48331940  0.71036845  0.90172917     0.15100
H3905       H  0.39768082  0.66046981  0.92439248     0.14800
N3906       N  0.42221913  0.68076756  0.96772804     0.73900
O3907       O  0.45455945  0.70693609  0.84276968    -0.39500
O3908       O  0.48224484  0.67311839  0.85374239    -0.39500
O3909       O  0.40168022  0.69488635  0.97521423    -0.40200
O3910       O  0.42988597  0.66030671  0.98198367    -0.40200
C3911       C  0.42791260  0.83347288  0.94808702    -0.12500
C3912       C  0.42406504  0.80487930  0.95247818     0.04500
C3913       C  0.39976270  0.79236613  0.94233327    -0.07800
C3914       C  0.38033184  0.80824162  0.92818246    -0.08500
C3915       C  0.38443012  0.83644918  0.92320953    -0.03100
C3916       C  0.40823696  0.84933890  0.93363230     0.03700
N3917       N  0.41281508  0.87824268  0.92967838     0.66200
H3918       H  0.44629726  0.84356517  0.95582010     0.15100
H3919       H  0.36199152  0.79809005  0.92057465     0.14800
N3920       N  0.39465456  0.76340602  0.94542333     0.73900
O3921       O  0.40685029  0.89490654  0.94869207    -0.39500
O3922       O  0.42847478  0.88609202  0.91063301    -0.39500
O3923       O  0.37802777  0.75534356  0.96354897    -0.40200
O3924       O  0.40117004  0.74712763  0.92626362    -0.40200
C3925       C  0.45575074  0.70847337  0.09259388    -0.12500
C3926       C  0.44007379  0.70600435  0.06810056     0.04500
C3927       C  0.41775480  0.68738246  0.06808082    -0.07800
C3928       C  0.41145716  0.67231577  0.09202998    -0.08500
C3929       C  0.42639112  0.67595848  0.11669087    -0.03100
C3930       C  0.44899840  0.69404984  0.11659151     0.03700
N3931       N  0.46525407  0.69831472  0.14077178     0.66200
H3932       H  0.47323916  0.72232369  0.09360665     0.15100
H3933       H  0.39365164  0.65890016  0.09170299     0.14800
N3934       N  0.40087013  0.68378526  0.04428711     0.73900
O3935       O  0.48567406  0.68270055  0.14536120    -0.39500
O3936       O  0.46358280  0.72116423  0.15317971    -0.39500
O3937       O  0.40279459  0.66157261  0.03087332    -0.40200
O3938       O  0.37976260  0.69881106  0.04117033    -0.40200
C3939       C  0.43265108  0.82989170  0.08125348    -0.12500
C3940       C  0.42934576  0.81237495  0.05838725     0.04500
C3941       C  0.40308325  0.81278867  0.04498267    -0.07800
C3942       C  0.38139206  0.82943350  0.05484162    -0.08500
C3943       C  0.38408070  0.84534298  0.07869823    -0.03100
C3944       C  0.41055957  0.84603394  0.09149342     0.03700
N3945       N  0.41551209  0.86278792  0.11515585     0.66200
H3946       H  0.45237679  0.83063139  0.09178312     0.15100
H3947       H  0.36147210  0.82812136  0.04472478     0.14800
N3948       N  0.39698076  0.79524212  0.02218788     0.73900
O3949       O  0.41537775  0.85177099  0.13867081    -0.39500
O3950       O  0.42638213  0.88626977  0.11213872    -0.39500
O3951       O  0.39252160  0.76990905  0.02654672    -0.40200
O3952       O  0.38744441  0.80613255  0.00056798    -0.40200
C3953       C  0.55600233  0.68383483  0.06542605    -0.12500
C3954       C  0.54368745  0.70859007  0.07446789     0.04500
C3955       C  0.54707256  0.71591962  0.10236365    -0.07800
C3956       C  0.56188885  0.69826049  0.12029993    -0.08500
C3957       C  0.57589545  0.67473710  0.11063818    -0.03100
C3958       C  0.57248181  0.66751700  0.08284149     0.03700
N3959       N  0.58503028  0.64330473  0.07185748     0.66200
H3960       H  0.55370731  0.67734479  0.04423450     0.15100
H3961       H  0.56414430  0.70381756  0.14161697     0.14800
N3962       N  0.53819288  0.74233375  0.11210773     0.73900
O3963       O  0.57404075  0.62018204  0.07656946    -0.39500
O3964       O  0.60091008  0.64574254  0.05158432    -0.39500
O3965       O  0.55192608  0.76352849  0.10583845    -0.40200
O3966       O  0.52057056  0.74385584  0.13098433    -0.40200
C3967       C  0.59154616  0.81568772  0.02943989    -0.12500
C3968       C  0.56526283  0.81616885  0.04135627     0.04500
C3969       C  0.56171910  0.82986911  0.06654786    -0.07800
C3970       C  0.58481929  0.84010055  0.08051428    -0.08500
C3971       C  0.61169739  0.83722335  0.06980877    -0.03100
C3972       C  0.61464039  0.82632899  0.04314291     0.03700
N3973       N  0.64083719  0.82505653  0.02997680     0.66200
H3974       H  0.59446937  0.80530852  0.01005002     0.15100
H3975       H  0.58163391  0.84905283  0.10065303     0.14800
N3976       N  0.53536714  0.83138843  0.07946143     0.73900
O3977       O  0.65383773  0.80240964  0.02941735    -0.39500
O3978       O  0.64762976  0.84422094  0.01377380    -0.39500
O3979       O  0.53041832  0.81600978  0.09977934    -0.40200
O3980       O  0.52040727  0.85241035  0.07537742    -0.40200
C3981       C  0.92699838  0.54687748  0.67287449    -0.12500
C3982       C  0.92384762  0.54114541  0.70108469     0.04500
C3983       C  0.89798371  0.54632417  0.71325194    -0.07800
C3984       C  0.87629622  0.55634127  0.69745435    -0.08500
C3985       C  0.87965134  0.56404701  0.66982641    -0.03100
C3986       C  0.90526520  0.55855623  0.65726519     0.03700
N3987       N  0.90972693  0.56485342  0.62899162     0.66200
H3988       H  0.94651118  0.54274100  0.66297896     0.15100
H3989       H  0.85696794  0.55983574  0.70793889     0.14800
N3990       N  0.89328837  0.54253009  0.74197703     0.73900
O3991       O  0.92241477  0.58666804  0.62264482    -0.39500
O3992       O  0.90661883  0.54608793  0.61123861    -0.39500
O3993       O  0.89834987  0.56226312  0.75818363    -0.40200
O3994       O  0.87762770  0.52330543  0.74975333    -0.40200
C3995       C  0.91279022  0.57772165  0.83436930    -0.12500
C3996       C  0.92048618  0.60584143  0.83411711     0.04500
C3997       C  0.94611852  0.61268604  0.82207944    -0.07800
C3998       C  0.96174343  0.59230090  0.80869847    -0.08500
C3999       C  0.95305585  0.56471170  0.80729767    -0.03100
C4000       C  0.92885575  0.55723053  0.82145052     0.03700
N4001       N  0.91911609  0.52935519  0.82124649     0.66200
H4002       H  0.89357851  0.57160638  0.84378470     0.15100
H4003       H  0.98046864  0.59835323  0.79841127     0.14800
N4004       N  0.95627527  0.64037331  0.82198509     0.73900
O4005       O  0.89968883  0.52280358  0.80521492    -0.39500
O4006       O  0.92487219  0.51370637  0.84125050    -0.39500
O4007       O  0.97659724  0.64623487  0.83717231    -0.40200
O4008       O  0.95064056  0.65586074  0.80182466    -0.40200
C4009       C  0.88526481  0.42943971  0.68938743    -0.12500
C4010       C  0.88913844  0.40612638  0.67306909     0.04500
C4011       C  0.91657659  0.39537715  0.67118764    -0.07800
C4012       C  0.93848084  0.40768719  0.68636421    -0.08500
C4013       C  0.93436884  0.43150898  0.70248692    -0.03100
C4014       C  0.90712348  0.44235188  0.70323630     0.03700
N4015       N  0.90088020  0.46762979  0.71663776     0.66200
H4016       H  0.86481453  0.43835813  0.69108116     0.15100
H4017       H  0.95895345  0.39879594  0.68503989     0.14800
N4018       N  0.92283309  0.37182225  0.65452722     0.73900
O4019       O  0.89744158  0.48852057  0.70154561    -0.39500
O4020       O  0.88837031  0.46667913  0.73920470    -0.39500
O4021       O  0.92686265  0.37545005  0.62920664    -0.40200
O4022       O  0.93273775  0.35043291  0.66581003    -0.40200
C4023       C  0.90659116  0.43321996  0.79870031    -0.12500
C4024       C  0.93420646  0.43950270  0.80415579     0.04500
C4025       C  0.94807450  0.42536094  0.82551602    -0.07800
C4026       C  0.93483719  0.40364788  0.83909003    -0.08500
C4027       C  0.90787551  0.39589730  0.83197043    -0.03100
C4028       C  0.89338097  0.41157685  0.81203288     0.03700
N4029       N  0.86593453  0.40481242  0.80361112     0.66200
H4030       H  0.89537519  0.44427589  0.78287516     0.15100
H4031       H  0.94592816  0.39253645  0.85508407     0.14800
N4032       N  0.97489147  0.43345573  0.83466128     0.73900
O4033       O  0.84592131  0.41803341  0.81362673    -0.39500
O4034       O  0.86223350  0.39047968  0.78224194    -0.39500
O4035       O  0.97759172  0.45634214  0.84683803    -0.40200
O4036       O  0.99309077  0.41507323  0.83816366    -0.40200
C4037       C  0.06889019  0.44239762  0.67450564    -0.12500
C4038       C  0.07413616  0.45487980  0.70009894     0.04500
C4039       C  0.10212444  0.45600628  0.70937327    -0.07800
C4040       C  0.12327535  0.44508474  0.69346321    -0.08500
C4041       C  0.11792399  0.43034439  0.66937491    -0.03100
C4042       C  0.09030536  0.42972197  0.65938185     0.03700
N4043       N  0.08328178  0.41517507  0.63477577     0.66200
H4044       H  0.04791931  0.44114912  0.66684578     0.15100
H4045       H  0.14404221  0.44590272  0.70176881     0.14800
N4046       N  0.10961917  0.46495126  0.73644275     0.73900
O4047       O  0.08159154  0.42826873  0.61238681    -0.39500
O4048       O  0.07308202  0.39124161  0.63639605    -0.39500
O4049       O  0.10948242  0.44746153  0.75572418    -0.40200
O4050       O  0.12345831  0.48681061  0.73940747    -0.40200
C4051       C  0.05892358  0.42729739  0.82843106    -0.12500
C4052       C  0.04252275  0.42237060  0.80502170     0.04500
C4053       C  0.03775845  0.39428891  0.79765718    -0.07800
C4054       C  0.05025119  0.37253535  0.81252949    -0.08500
C4055       C  0.06772110  0.37742029  0.83519908    -0.03100
C4056       C  0.07144464  0.40539031  0.84336241     0.03700
N4057       N  0.09005787  0.41235153  0.86503659     0.66200
H4058       H  0.06315474  0.44841449  0.83456677     0.15100
H4059       H  0.04676802  0.35149759  0.80566542     0.14800
N4060       N  0.02042925  0.38728570  0.77483165     0.73900
O4061       O  0.11371629  0.42105721  0.85895801    -0.39500
O4062       O  0.08069191  0.41702246  0.88870380    -0.39500
O4063       O  0.03091826  0.37855302  0.75281126    -0.40200
O4064       O  0.99459742  0.38957196  0.77673962    -0.40200
C4065       C  0.08580840  0.58761172  0.66650337    -0.12500
C4066       C  0.11349781  0.57888039  0.66585034     0.04500
C4067       C  0.12029091  0.55348389  0.67893764    -0.07800
C4068       C  0.10037766  0.53925246  0.69432685    -0.08500
C4069       C  0.07317967  0.54881984  0.69611412    -0.03100
C4070       C  0.06568080  0.57263365  0.68079956     0.03700
N4071       N  0.03784317  0.58241456  0.68003095     0.66200
H4072       H  0.07964749  0.60653658  0.65615708     0.15100
H4073       H  0.10617901  0.52034852  0.70471963     0.14800
N4074       N  0.14692833  0.54120542  0.67627808     0.73900
O4075       O  0.03114692  0.60319705  0.69416426    -0.39500
O4076       O  0.02221932  0.57482878  0.66065396    -0.39500
O4077       O  0.16469266  0.54485629  0.69494298    -0.40200
O4078       O  0.14964942  0.52094389  0.66020464    -0.40200
C4079       C  0.05097594  0.57773142  0.82875695    -0.12500
C4080       C  0.04134850  0.58108314  0.80160142     0.04500
C4081       C  0.04062537  0.60836696  0.79066090    -0.07800
C4082       C  0.05126165  0.63052599  0.80565438    -0.08500
C4083       C  0.06376412  0.62679134  0.83140203    -0.03100
C4084       C  0.06193226  0.60026375  0.84373907     0.03700
N4085       N  0.07108761  0.59570745  0.87130393     0.66200
H4086       H  0.05087605  0.55739957  0.83815118     0.15100
H4087       H  0.05151270  0.65066173  0.79582587     0.14800
N4088       N  0.03178285  0.61399550  0.76317745     0.73900
O4089       O  0.05394619  0.59758127  0.89058268    -0.39500
O4090       O  0.09372438  0.58355472  0.87561081    -0.39500
O4091       O  0.00765039  0.62289265  0.75893319    -0.40200
O4092       O  0.04985437  0.61761555  0.74503162    -0.40200
C4093       C  0.91046953  0.65195491  0.42992497    -0.12500
C4094       C  0.88328767  0.66154932  0.43410310     0.04500
C4095       C  0.87993454  0.68362824  0.45296017    -0.07800
C4096       C  0.90282025  0.69642051  0.46546971    -0.08500
C4097       C  0.93006262  0.68825544  0.45998740    -0.03100
C4098       C  0.93360168  0.66489040  0.44260137     0.03700
N4099       N  0.96050564  0.65462398  0.43656900     0.66200
H4100       H  0.91400784  0.63512031  0.41567912     0.15100
H4101       H  0.89901346  0.71360335  0.47924100     0.14800
N4102       N  0.85323857  0.69343041  0.46015651     0.73900
O4103       O  0.97016120  0.63466080  0.45036034    -0.39500
O4104       O  0.97178297  0.66125987  0.41424460    -0.39500
O4105       O  0.84356547  0.68630579  0.48306340    -0.40200
O4106       O  0.84389512  0.71486439  0.44848853    -0.40200
C4107       C  0.94017302  0.82102317  0.44210967    -0.12500
C4108       C  0.95203578  0.79582957  0.43335014     0.04500
C4109       C  0.94710801  0.78778770  0.40556407    -0.07800
C4110       C  0.93145671  0.80468358  0.38781494    -0.08500
C4111       C  0.91872406  0.82905810  0.39684397    -0.03100
C4112       C  0.92332578  0.83727234  0.42439272     0.03700
N4113       N  0.91166282  0.86238022  0.43456653     0.66200
H4114       H  0.94337270  0.82788420  0.46306692     0.15100
H4115       H  0.92769690  0.79754848  0.36702419     0.14800
N4116       N  0.95587360  0.76150445  0.39522594     0.73900
O4117       O  0.89005191  0.86145679  0.44879564    -0.39500
O4118       O  0.92605678  0.88408093  0.43472885    -0.39500
O4119       O  0.94095963  0.74058838  0.39943077    -0.40200
O4120       O  0.97334517  0.76065215  0.37616897    -0.40200
C4121       C  0.92792263  0.66088708  0.60259836    -0.12500
C4122       C  0.90302469  0.65739156  0.58785233     0.04500
C4123       C  0.90171569  0.66672159  0.56048388    -0.07800
C4124       C  0.92391993  0.68147180  0.54950195    -0.08500
C4125       C  0.94756226  0.68763097  0.56541750    -0.03100
C4126       C  0.94978297  0.67616855  0.59198670     0.03700
N4127       N  0.97309281  0.68125568  0.60936203     0.66200
H4128       H  0.92993938  0.65343173  0.62352281     0.15100
H4129       H  0.92191354  0.68927908  0.52871039     0.14800
N4130       N  0.87765460  0.66267442  0.54394587     0.73900
O4131       O  0.97320573  0.70249335  0.62444068    -0.39500
O4132       O  0.98932092  0.66155856  0.61495429    -0.39500
O4133       O  0.85977614  0.68163532  0.54241888    -0.40200
O4134       O  0.87726803  0.64330834  0.52657671    -0.40200
C4135       C  0.95986991  0.80067434  0.59052283    -0.12500
C4136       C  0.94434380  0.79708570  0.56615901     0.04500
C4137       C  0.91915947  0.81193513  0.56390775    -0.07800
C4138       C  0.90961208  0.82825678  0.58604854    -0.08500
C4139       C  0.92437269  0.83011576  0.61098873    -0.03100
C4140       C  0.95001234  0.81636596  0.61283081     0.03700
N4141       N  0.96619191  0.81774571  0.63743495     0.66200
H4142       H  0.97952883  0.79034167  0.59277978     0.15100
H4143       H  0.88967860  0.83830991  0.58424040     0.14800
N4144       N  0.90261512  0.81032132  0.53959828     0.73900
O4145       O  0.96198128  0.80058436  0.65648998    -0.39500
O4146       O  0.98799411  0.83190398  0.63770676    -0.39500
O4147       O  0.88110603  0.79571947  0.53962724    -0.40200
O4148       O  0.90608468  0.82778717  0.52065748    -0.40200
C4149       C  0.11153876  0.70833189  0.45026638    -0.12500
C4150       C  0.08581255  0.69527870  0.45223089     0.04500
C4151       C  0.08345710  0.66834576  0.44087505    -0.07800
C4152       C  0.10611036  0.65595689  0.42724774    -0.08500
C4153       C  0.13159161  0.66972647  0.42431800    -0.03100
C4154       C  0.13388903  0.69638866  0.43642891     0.03700
N4155       N  0.15815794  0.71281267  0.43379821     0.66200
H4156       H  0.11427970  0.72892546  0.45861547     0.15100
H4157       H  0.10343458  0.63558086  0.41837311     0.14800
N4158       N  0.05820869  0.65334049  0.44249127     0.73900
O4159       O  0.16206011  0.72565514  0.41160141    -0.39500
O4160       O  0.16997436  0.72135068  0.45532763    -0.39500
O4161       O  0.04261678  0.65205489  0.42168253    -0.40200
O4162       O  0.05453948  0.63680871  0.46220110    -0.40200
C4163       C  0.06801796  0.83977749  0.40437740    -0.12500
C4164       C  0.06006639  0.83116072  0.37783012     0.04500
C4165       C  0.04056577  0.80967024  0.37566308    -0.07800
C4166       C  0.03210016  0.79533148  0.39904145    -0.08500
C4167       C  0.04212505  0.80189411  0.42527430    -0.03100
C4168       C  0.05918357  0.82545715  0.42802515     0.03700
N4169       N  0.06963214  0.83378582  0.45421967     0.66200
H4170       H  0.08294306  0.85624541  0.40677745     0.15100
H4171       H  0.01828969  0.77800825  0.39641075     0.14800
N4172       N  0.02941264  0.80151162  0.34978523     0.73900
O4173       O  0.09277151  0.82481815  0.46225358    -0.39500
O4174       O  0.05917323  0.85454732  0.46595879    -0.39500
O4175       O  0.03621214  0.77826999  0.34014583    -0.40200
O4176       O  0.00699156  0.81235452  0.34203359    -0.40200
C4177       C  0.09981515  0.65411358  0.57325241    -0.12500
C4178       C  0.12679373  0.66043112  0.56471286     0.04500
C4179       C  0.12976101  0.67890191  0.54238408    -0.07800
C4180       C  0.10655241  0.69214436  0.53085747    -0.08500
C4181       C  0.07979686  0.68779974  0.54100388    -0.03100
C4182       C  0.07650188  0.66757343  0.56172527     0.03700
N4183       N  0.05011298  0.66259489  0.57343087     0.66200
H4184       H  0.09685650  0.64019512  0.59044394     0.15100
H4185       H  0.10972719  0.70702088  0.51451189     0.14800
N4186       N  0.15626099  0.68484832  0.53126017     0.73900
O4187       O  0.03617779  0.64210362  0.56540301    -0.39500
O4188       O  0.04370293  0.67465709  0.59546225    -0.39500
O4189       O  0.16306375  0.67371589  0.50886188    -0.40200
O4190       O  0.16902251  0.70607527  0.53935613    -0.40200
C4191       C  0.05069273  0.80308895  0.63091268    -0.12500
C4192       C  0.06664527  0.82704305  0.62674230     0.04500
C4193       C  0.07005123  0.83590164  0.59915112    -0.07800
C4194       C  0.05915616  0.82027799  0.57700624    -0.08500
C4195       C  0.04522281  0.79513449  0.58112816    -0.03100
C4196       C  0.04059298  0.78692734  0.60884035     0.03700
N4197       N  0.02769664  0.76110921  0.61528017     0.66200
H4198       H  0.04780031  0.79547153  0.65164023     0.15100
H4199       H  0.06305568  0.82723833  0.55623251     0.14800
N4200       N  0.08685065  0.85915428  0.59277616     0.73900
O4201       O  0.04173115  0.73909525  0.61427204    -0.39500
O4202       O  0.00544129  0.76110411  0.62851996    -0.39500
O4203       O  0.10944907  0.85508577  0.58075900    -0.40200
O4204       O  0.07606293  0.88293790  0.59202081    -0.40200
C4205       C  0.67459538  0.44552198  0.92285340    -0.12500
C4206       C  0.69896516  0.46008464  0.91702219     0.04500
C4207       C  0.70642395  0.46340998  0.88915410    -0.07800
C4208       C  0.69077352  0.45083206  0.86828018    -0.08500
C4209       C  0.66730711  0.43497200  0.87420434    -0.03100
C4210       C  0.65872390  0.43323225  0.90187259     0.03700
N4211       N  0.63487946  0.41775688  0.90933109     0.66200
H4212       H  0.66815092  0.44292085  0.94396512     0.15100
H4213       H  0.69758655  0.45283604  0.84721350     0.14800
N4214       N  0.72991274  0.47936029  0.88153228     0.73900
O4215       O  0.63748377  0.39273970  0.91636610    -0.39500
O4216       O  0.61268878  0.43037837  0.91441074    -0.39500
O4217       O  0.75208835  0.46711061  0.87560521    -0.40200
O4218       O  0.72666193  0.50430212  0.87449246    -0.40200
C4219       C  0.82625994  0.42993376  0.94067767    -0.12500
C4220       C  0.80207612  0.42400148  0.95541723     0.04500
C4221       C  0.79319125  0.39623240  0.95677316    -0.07800
C4222       C  0.80788124  0.37553421  0.94340726    -0.08500
C4223       C  0.83116117  0.38131751  0.92736062    -0.03100
C4224       C  0.84041751  0.40904017  0.92611724     0.03700
N4225       N  0.86263303  0.41678634  0.90864434     0.66200
H4226       H  0.83308763  0.45116870  0.93874566     0.15100
H4227       H  0.79951978  0.35479064  0.94420038     0.14800
N4228       N  0.76792215  0.38874526  0.96972740     0.73900
O4229       O  0.85766395  0.42241287  0.88376988    -0.39500
O4230       O  0.88523638  0.42422709  0.91919837    -0.39500
O4231       O  0.74690131  0.38354611  0.95523468    -0.40200
O4232       O  0.76743625  0.38421390  0.99521802    -0.40200
C4233       C  0.71061847  0.57351880  0.91694321    -0.12500
C4234       C  0.70038967  0.54768313  0.92443148     0.04500
C4235       C  0.67956190  0.53521996  0.90825386    -0.07800
C4236       C  0.67333346  0.54673753  0.88234316    -0.08500
C4237       C  0.68449462  0.57218990  0.87440975    -0.03100
C4238       C  0.70117871  0.58686313  0.89336183     0.03700
N4239       N  0.70583505  0.61601776  0.89110262     0.66200
H4240       H  0.72521810  0.58394674  0.93033519     0.15100
H4241       H  0.65802829  0.53707168  0.86920464     0.14800
N4242       N  0.66319756  0.51275506  0.91846383     0.73900
O4243       O  0.72943854  0.62547517  0.89668927    -0.39500
O4244       O  0.68537712  0.63199558  0.89332553    -0.39500
O4245       O  0.65898869  0.51049135  0.94392301    -0.40200
O4246       O  0.64827906  0.49900769  0.90212724    -0.40200
C4247       C  0.84368083  0.59566207  0.93329346    -0.12500
C4248       C  0.83229911  0.62252237  0.93255958     0.04500
C4249       C  0.80700040  0.62676411  0.94645255    -0.07800
C4250       C  0.79219945  0.60422985  0.95690874    -0.08500
C4251       C  0.80307485  0.57726484  0.95746681    -0.03100
C4252       C  0.82978343  0.57338638  0.94621775     0.03700
N4253       N  0.84272539  0.54682803  0.94660855     0.66200
H4254       H  0.86308278  0.59167569  0.92313622     0.15100
H4255       H  0.77177295  0.60806918  0.96482152     0.14800
N4256       N  0.79585035  0.65399098  0.95015743     0.73900
O4257       O  0.84124684  0.53161524  0.92560229    -0.39500
O4258       O  0.86053939  0.54154396  0.96489170    -0.39500
O4259       O  0.77270962  0.66029874  0.93990913    -0.40200
O4260       O  0.80903172  0.67169064  0.96401553    -0.40200
C4261       C  0.69215183  0.46210224  0.09279115    -0.12500
C4262       C  0.69052235  0.45381672  0.06534978     0.04500
C4263       C  0.67536110  0.42993393  0.05856599    -0.07800
C4264       C  0.66484296  0.41326708  0.07957351    -0.08500
C4265       C  0.66882337  0.42015531  0.10742234    -0.03100
C4266       C  0.68150682  0.44572830  0.11383985     0.03700
N4267       N  0.68560713  0.45474760  0.14149917     0.66200
H4268       H  0.70342805  0.48062396  0.09806599     0.15100
H4269       H  0.65453005  0.39420397  0.07398546     0.14800
N4270       N  0.67235980  0.42110658  0.03069101     0.73900
O4271       O  0.70618040  0.44581211  0.15482817    -0.39500
O4272       O  0.67411705  0.47684768  0.14919113    -0.39500
O4273       O  0.68722356  0.40168240  0.02174750    -0.40200
O4274       O  0.65135288  0.42851474  0.01712365    -0.40200
C4275       C  0.79492823  0.37528656  0.06936081    -0.12500
C4276       C  0.82369509  0.37388688  0.06797361     0.04500
C4277       C  0.83788982  0.39539951  0.05448191    -0.07800
C4278       C  0.82302332  0.41747987  0.04231070    -0.08500
C4279       C  0.79404064  0.41864948  0.04344654    -0.03100
C4280       C  0.78013558  0.39734013  0.05774225     0.03700
N4281       N  0.75098157  0.39808782  0.06161069     0.66200
H4282       H  0.78373442  0.35922192  0.08010094     0.15100
H4283       H  0.83417440  0.43348789  0.03149918     0.14800
N4284       N  0.86714303  0.39446475  0.05170603     0.73900
O4285       O  0.73598413  0.38165617  0.04809931    -0.39500
O4286       O  0.74150337  0.40915135  0.08304971    -0.39500
O4287       O  0.87740008  0.38541071  0.02970813    -0.40200
O4288       O  0.88200685  0.40832843  0.06796523    -0.40200
C4289       C  0.69308192  0.55730957  0.12490667    -0.12500
C4290       C  0.66925130  0.57295331  0.11921130     0.04500
C4291       C  0.65909786  0.57243406  0.09186973    -0.07800
C4292       C  0.67313396  0.55750095  0.07114188    -0.08500
C4293       C  0.69801571  0.54337947  0.07659300    -0.03100
C4294       C  0.70772896  0.54335596  0.10428336     0.03700
N4295       N  0.73349150  0.53097746  0.11193963     0.66200
H4296       H  0.70161341  0.55715909  0.14554567     0.15100
H4297       H  0.66522806  0.55832243  0.05028812     0.14800
N4298       N  0.63614958  0.58906376  0.08400097     0.73900
O4299       O  0.75529823  0.54480376  0.10897633    -0.39500
O4300       O  0.73363250  0.51085631  0.12848673    -0.39500
O4301       O  0.64058185  0.61170967  0.07195539    -0.40200
O4302       O  0.61269354  0.57803688  0.08213862    -0.40200
C4303       C  0.81218984  0.61788339  0.05501596    -0.12500
C4304       C  0.83102197  0.61048392  0.07550885     0.04500
C4305       C  0.83633983  0.58197242  0.08034584    -0.07800
C4306       C  0.82200493  0.56204626  0.06481223    -0.08500
C4307       C  0.80133053  0.56996451  0.04592614    -0.03100
C4308       C  0.79595308  0.59852950  0.04183940     0.03700
N4309       N  0.77283784  0.60899199  0.02643323     0.66200
H4310       H  0.80782303  0.63948841  0.05080990     0.15100
H4311       H  0.82596035  0.54029758  0.06869918     0.14800
N4312       N  0.85523576  0.57270671  0.10113909     0.73900
O4313       O  0.74903020  0.60617032  0.03633264    -0.39500
O4314       O  0.77677071  0.62910225  0.01039266    -0.39500
O4315       O  0.84600088  0.56033307  0.12198370    -0.40200
O4316       O  0.88026784  0.56953862  0.09500264    -0.40200
C4317       C  0.46223671  0.89498968  0.71876113    -0.12500
C4318       C  0.46238932  0.92159815  0.70716894     0.04500
C4319       C  0.45155527  0.92477194  0.68020639    -0.07800
C4320       C  0.43900386  0.90222398  0.66660679    -0.08500
C4321       C  0.43737200  0.87592796  0.67898214    -0.03100
C4322       C  0.45010850  0.87243388  0.70515508     0.03700
N4323       N  0.45024258  0.84626743  0.71888345     0.66200
H4324       H  0.47075315  0.89167379  0.73913936     0.15100
H4325       H  0.42971716  0.90561623  0.64658015     0.14800
N4326       N  0.45268229  0.95087419  0.66644522     0.73900
O4327       O  0.47100734  0.83066064  0.71671757    -0.39500
O4328       O  0.43327476  0.84197467  0.73794374    -0.39500
O4329       O  0.47541864  0.95992764  0.65784418    -0.40200
O4330       O  0.43135485  0.96578342  0.66463991    -0.40200
C4331       C  0.40822222  0.96325557  0.81558878    -0.12500
C4332       C  0.43465073  0.95167350  0.81369993     0.04500
C4333       C  0.43905021  0.92473346  0.82426076    -0.07800
C4334       C  0.41665132  0.90947332  0.83482409    -0.08500
C4335       C  0.38995612  0.92097053  0.83575021    -0.03100
C4336       C  0.38620631  0.94856976  0.82683417     0.03700
N4337       N  0.35952260  0.96118437  0.82654999     0.66200
H4338       H  0.40426020  0.98358008  0.80691689     0.15100
H4339       H  0.41999712  0.88839040  0.84171183     0.14800
N4340       N  0.46552317  0.91184494  0.82252495     0.73900
O4341       O  0.35227334  0.97608586  0.84652616    -0.39500
O4342       O  0.34601393  0.96233796  0.80433286    -0.39500
O4343       O  0.48054995  0.91019877  0.84372655    -0.40200
O4344       O  0.47155978  0.89775401  0.80158783    -0.40200
C4345       C  0.57483976  0.94415934  0.68104895    -0.12500
C4346       C  0.56572260  0.93977458  0.70793192     0.04500
C4347       C  0.56670683  0.91275645  0.71902142    -0.07800
C4348       C  0.57649339  0.89089301  0.70334602    -0.08500
C4349       C  0.58544265  0.89491776  0.67647195    -0.03100
C4350       C  0.58435807  0.92191195  0.66509059     0.03700
N4351       N  0.59117021  0.92685661  0.63701522     0.66200
H4352       H  0.57350711  0.96464964  0.67204466     0.15100
H4353       H  0.57752951  0.87059939  0.71268475     0.14800
N4354       N  0.55908165  0.90706135  0.74670409     0.73900
O4355       O  0.57258451  0.92484249  0.61887400    -0.39500
O4356       O  0.61329235  0.93918198  0.63132896    -0.39500
O4357       O  0.53582464  0.89638880  0.75110989    -0.40200
O4358       O  0.57803283  0.90365957  0.76426857    -0.40200
C4359       C  0.56882195  0.92558511  0.82564315    -0.12500
C4360       C  0.57142347  0.94739638  0.80701071     0.04500
C4361       C  0.59812023  0.95856971  0.80266892    -0.07800
C4362       C  0.62134063  0.94617367  0.81469470    -0.08500
C4363       C  0.61884941  0.92313667  0.83173753    -0.03100
C4364       C  0.59203902  0.91377488  0.83827301     0.03700
N4365       N  0.58772402  0.89202013  0.85741905     0.66200
H4366       H  0.54866027  0.91712482  0.83002740     0.15100
H4367       H  0.64160027  0.95416364  0.80986841     0.14800
N4368       N  0.60262271  0.98187162  0.78537351     0.73900
O4369       O  0.58019092  0.89846284  0.88133233    -0.39500
O4370       O  0.58310025  0.86793070  0.84853659    -0.39500
O4371       O  0.61016798  0.00413159  0.79656236    -0.40200
O4372       O  0.60873866  0.97770122  0.76057740    -0.40200
C4373       C  0.44104239  0.10156387  0.71380277    -0.12500
C4374       C  0.44474330  0.07482440  0.70307394     0.04500
C4375       C  0.43656438  0.06996367  0.67556516    -0.07800
C4376       C  0.42560471  0.09171759  0.65955062    -0.08500
C4377       C  0.42267694  0.11868907  0.67018542    -0.03100
C4378       C  0.43066087  0.12330232  0.69778996     0.03700
N4379       N  0.42889311  0.15004303  0.71008289     0.66200
H4380       H  0.44703704  0.10615756  0.73477743     0.15100
H4381       H  0.41864447  0.08723762  0.63882973     0.14800
N4382       N  0.43833469  0.04299034  0.66374351     0.73900
O4383       O  0.41250997  0.15386200  0.72971704    -0.39500
O4384       O  0.44868888  0.16653865  0.70700391    -0.39500
O4385       O  0.41763836  0.02726888  0.66443520    -0.40200
O4386       O  0.45810046  0.03721248  0.64803231    -0.40200
C4387       C  0.41920793  0.07867667  0.79439443    -0.12500
C4388       C  0.42677039  0.05425668  0.80789633     0.04500
C4389       C  0.41929098  0.05068664  0.83561934    -0.07800
C4390       C  0.40272899  0.07076076  0.84844999    -0.08500
C4391       C  0.39508344  0.09526033  0.83468984    -0.03100
C4392       C  0.40427869  0.09941657  0.80761126     0.03700
N4393       N  0.39734147  0.12375577  0.79242432     0.66200
H4394       H  0.42537433  0.08200656  0.77333543     0.15100
H4395       H  0.39554780  0.06707967  0.86916947     0.14800
N4396       N  0.42749764  0.02667449  0.85075833     0.73900
O4397       O  0.40975850  0.14600056  0.79787192    -0.39500
O4398       O  0.38600904  0.12105866  0.76920600    -0.39500
O4399       O  0.44999483  0.02709498  0.86389376    -0.40200
O4400       O  0.40946361  0.00917724  0.85733092    -0.40200
C4401       C  0.56165747  0.05812405  0.67993655    -0.12500
C4402       C  0.53908368  0.06835113  0.69484328     0.04500
C4403       C  0.53252159  0.09677414  0.69238164    -0.07800
C4404       C  0.54924761  0.11435488  0.67694959    -0.08500
C4405       C  0.57311142  0.10473986  0.66398299    -0.03100
C4406       C  0.57868777  0.07590922  0.66468714     0.03700
N4407       N  0.60167076  0.06425115  0.65053176     0.66200
H4408       H  0.56705387  0.03637457  0.68125893     0.15100
H4409       H  0.54402009  0.13617764  0.67635559     0.14800
N4410       N  0.50854147  0.10843598  0.70462641     0.73900
O4411       O  0.62271303  0.05686016  0.66405583    -0.39500
O4412       O  0.59811249  0.05481215  0.62661657    -0.39500
O4413       O  0.50948089  0.11554032  0.72955363    -0.40200
O4414       O  0.49123798  0.12007492  0.68895927    -0.40200
C4415       C  0.56608929  0.05950949  0.82873907    -0.12500
C4416       C  0.57132360  0.05388950  0.80095922     0.04500
C4417       C  0.59615395  0.06344139  0.78941315    -0.07800
C4418       C  0.61546849  0.07709264  0.80601924    -0.08500
C4419       C  0.60989456  0.08337256  0.83365477    -0.03100
C4420       C  0.58469186  0.07459643  0.84491323     0.03700
N4421       N  0.57741847  0.08055244  0.87263160     0.66200
H4422       H  0.54711934  0.05250161  0.83803544     0.15100
H4423       H  0.63430951  0.08421643  0.79668793     0.14800
N4424       N  0.60130590  0.06110219  0.76059345     0.73900
O4425       O  0.55501133  0.09304317  0.87715482    -0.39500
O4426       O  0.58846635  0.06668748  0.89174765    -0.39500
O4427       O  0.59042614  0.07811636  0.74405627    -0.40200
O4428       O  0.61674385  0.04215586  0.75160245    -0.40200
C4429       C  0.30629638  0.56407696  0.87709512    -0.12500
C4430       C  0.33318502  0.57451778  0.87988002     0.04500
C4431       C  0.34345391  0.57859807  0.90700064    -0.07800
C4432       C  0.32653353  0.57325386  0.93004686    -0.08500
C4433       C  0.29929530  0.56404197  0.92677110    -0.03100
C4434       C  0.28935103  0.55955645  0.89978401     0.03700
N4435       N  0.26113815  0.55269377  0.89476476     0.66200
H4436       H  0.29739944  0.56115552  0.85681831     0.15100
H4437       H  0.33488735  0.57593288  0.95056721     0.14800
N4438       N  0.37070198  0.58859912  0.91172220     0.73900
O4439       O  0.24345954  0.57190448  0.89453874    -0.39500
O4440       O  0.25539496  0.53006336  0.88319500    -0.39500
O4441       O  0.37394865  0.61116502  0.92432514    -0.40200
O4442       O  0.39069221  0.57193235  0.91010347    -0.40200
C4443       C  0.18051393  0.55389385  0.90776263    -0.12500
C4444       C  0.19226401  0.56006794  0.93340045     0.04500
C4445       C  0.18439534  0.58489084  0.94666237    -0.07800
C4446       C  0.16755988  0.60393403  0.93308375    -0.08500
C4447       C  0.15886647  0.59934232  0.90606925    -0.03100
C4448       C  0.16410140  0.57318523  0.89387894     0.03700
N4449       N  0.15462401  0.56623210  0.86685168     0.66200
H4450       H  0.18553296  0.53470188  0.89742281     0.15100
H4451       H  0.16333863  0.62352322  0.94308748     0.14800
N4452       N  0.19448919  0.59227526  0.97319669     0.73900
O4453       O  0.16938614  0.57244693  0.84652475    -0.39500
O4454       O  0.13709799  0.54716303  0.86417277    -0.39500
O4455       O  0.21690706  0.60533120  0.97493993    -0.40200
O4456       O  0.17751634  0.59394253  0.99263218    -0.40200
C4457       C  0.29439349  0.46899256  0.89189158    -0.12500
C4458       C  0.30287166  0.46347101  0.91894446     0.04500
C4459       C  0.32809903  0.44901833  0.92292355    -0.07800
C4460       C  0.34284625  0.43885307  0.90022044    -0.08500
C4461       C  0.33309077  0.44259947  0.87324341    -0.03100
C4462       C  0.30917587  0.45901312  0.86928627     0.03700
N4463       N  0.29930659  0.46569912  0.84240101     0.66200
H4464       H  0.27556258  0.48046220  0.88809825     0.15100
H4465       H  0.36094506  0.42615535  0.90394073     0.14800
N4466       N  0.33810525  0.44252237  0.94981212     0.73900
O4467       O  0.28058053  0.45104486  0.83178886    -0.39500
O4468       O  0.30287705  0.48996954  0.83356512    -0.39500
O4469       O  0.33390570  0.41869460  0.95952228    -0.40200
O4470       O  0.35636838  0.45763830  0.96057092    -0.40200
C4471       C  0.16306434  0.42332060  0.91371950    -0.12500
C4472       C  0.16217328  0.39567894  0.92272909     0.04500
C4473       C  0.17530264  0.38896652  0.94796868    -0.07800
C4474       C  0.19097720  0.40895578  0.96187776    -0.08500
C4475       C  0.19322322  0.43604891  0.95187463    -0.03100
C4476       C  0.17822426  0.44342587  0.92801623     0.03700
N4477       N  0.18054614  0.47037750  0.91623943     0.66200
H4478       H  0.15339963  0.42914679  0.89446489     0.15100
H4479       H  0.20222569  0.40296525  0.98020592     0.14800
N4480       N  0.17395634  0.36178736  0.95939922     0.73900
O4481       O  0.19886296  0.47471987  0.89848187    -0.39500
O4482       O  0.16055908  0.48701457  0.91813840    -0.39500
O4483       O  0.19429343  0.34566468  0.95699111    -0.40200
O4484       O  0.15645888  0.35706070  0.97782246    -0.40200
C4485       C  0.30919028  0.46819853  0.09381347    -0.12500
C4486       C  0.30969941  0.45936215  0.06655402     0.04500
C4487       C  0.32814116  0.43819311  0.05872703    -0.07800
C4488       C  0.34267867  0.42385614  0.07885246    -0.08500
C4489       C  0.33958464  0.43039938  0.10657893    -0.03100
C4490       C  0.32453834  0.45435040  0.11382675     0.03700
N4491       N  0.32457028  0.46506333  0.14110164     0.66200
H4492       H  0.29621290  0.48542160  0.09972982     0.15100
H4493       H  0.35497685  0.40628166  0.07276561     0.14800
N4494       N  0.33041445  0.42907612  0.03092464     0.73900
O4495       O  0.34024203  0.48516284  0.14631348    -0.39500
O4496       O  0.30384328  0.46121434  0.15609305    -0.39500
O4497       O  0.35177439  0.43509622  0.01758653    -0.40200
O4498       O  0.31505828  0.40982330  0.02243794    -0.40200
C4499       C  0.20824830  0.39855349  0.03779787    -0.12500
C4500       C  0.20049368  0.42586828  0.04331642     0.04500
C4501       C  0.17749872  0.43041308  0.06065358    -0.07800
C4502       C  0.16426708  0.40779118  0.07337060    -0.08500
C4503       C  0.17328081  0.38049985  0.06891261    -0.03100
C4504       C  0.19501627  0.37616897  0.04994355     0.03700
N4505       N  0.20498146  0.34910872  0.04340164     0.66200
H4506       H  0.22542606  0.39430419  0.02430289     0.15100
H4507       H  0.14782243  0.41174512  0.08780679     0.14800
N4508       N  0.16824562  0.45776691  0.06688523     0.73900
O4509       O  0.19559536  0.33695490  0.02243882    -0.39500
O4510       O  0.22717829  0.34062218  0.05420309    -0.39500
O4511       O  0.14693240  0.46712256  0.05508951    -0.40200
O4512       O  0.17741772  0.46979962  0.08803073    -0.40200
C4513       C  0.32798973  0.57166542  0.05542908    -0.12500
C4514       C  0.30438168  0.55705234  0.06384201     0.04500
C4515       C  0.29653553  0.55963771  0.09193871    -0.07800
C4516       C  0.31237706  0.57530259  0.11035328    -0.08500
C4517       C  0.33526113  0.59052620  0.10186768    -0.03100
C4518       C  0.34302500  0.58865708  0.07394306     0.03700
N4519       N  0.36614657  0.60367515  0.06398490     0.66200
H4520       H  0.33441721  0.57057879  0.03418850     0.15100
H4521       H  0.30544603  0.57696572  0.13140420     0.14800
N4522       N  0.27133598  0.54838221  0.10210216     0.73900
O4523       O  0.38964983  0.59242907  0.06445385    -0.39500
O4524       O  0.36206272  0.62451107  0.04886252    -0.39500
O4525       O  0.27224335  0.52870473  0.11913449    -0.40200
O4526       O  0.24954383  0.56260913  0.10010605    -0.40200
C4527       C  0.17527251  0.56481270  0.05692588    -0.12500
C4528       C  0.19977267  0.57487583  0.04523314     0.04500
C4529       C  0.20731710  0.60257469  0.05085012    -0.07800
C4530       C  0.19005186  0.61940600  0.06684537    -0.08500
C4531       C  0.16598572  0.60905135  0.07906331    -0.03100
C4532       C  0.15880851  0.58130873  0.07400543     0.03700
N4533       N  0.13456905  0.56951867  0.08539315     0.66200
H4534       H  0.16885950  0.54368219  0.05318477     0.15100
H4535       H  0.19640316  0.64045816  0.07088742     0.14800
N4536       N  0.23307388  0.61361994  0.04199187     0.73900
O4537       O  0.11224885  0.57139683  0.07205914    -0.39500
O4538       O  0.13708409  0.55099558  0.10354349    -0.39500
O4539       O  0.23323825  0.63311133  0.02473273    -0.40200
O4540       O  0.25443025  0.60902484  0.05624253    -0.40200
C4541       C  0.46594810  0.32908991  0.91931624    -0.12500
C4542       C  0.45553265  0.30325130  0.92798740     0.04500
C4543       C  0.43274543  0.29246342  0.91338015    -0.07800
C4544       C  0.42167954  0.30648609  0.89043382    -0.08500
C4545       C  0.43192408  0.33220780  0.88129718    -0.03100
C4546       C  0.45429000  0.34362341  0.89641909     0.03700
N4547       N  0.46659364  0.36896013  0.88789135     0.66200
H4548       H  0.48378894  0.33762427  0.92973314     0.15100
H4549       H  0.40429456  0.29717552  0.87993595     0.14800
N4550       N  0.41993627  0.26739186  0.92222584     0.73900
O4551       O  0.46003108  0.39115999  0.89983397    -0.39500
O4552       O  0.48824901  0.36818422  0.87370388    -0.39500
O4553       O  0.40536780  0.26729113  0.94360575    -0.40200
O4554       O  0.42271145  0.24547319  0.90843909    -0.40200
C4555       C  0.41272456  0.16096907  0.92705598    -0.12500
C4556       C  0.38604873  0.16231866  0.93823493     0.04500
C4557       C  0.38255842  0.17880974  0.96213478    -0.07800
C4558       C  0.40462808  0.19449078  0.97277689    -0.08500
C4559       C  0.43069794  0.19472530  0.96055022    -0.03100
C4560       C  0.43476985  0.17683052  0.93779063     0.03700
N4561       N  0.46048347  0.17623701  0.92370503     0.66200
H4562       H  0.41617372  0.14900982  0.90853520     0.15100
H4563       H  0.40108080  0.20705511  0.99085549     0.14800
N4564       N  0.35649789  0.18066958  0.97553603     0.73900
O4565       O  0.47715295  0.15665433  0.92830594    -0.39500
O4566       O  0.46346950  0.19094931  0.90250784    -0.39500
O4567       O  0.35256936  0.16671057  0.99706491    -0.40200
O4568       O  0.34078745  0.20088346  0.97026984    -0.40200
C4569       C  0.56900645  0.34395880  0.90221587    -0.12500
C4570       C  0.56141806  0.33517049  0.87565856     0.04500
C4571       C  0.54195843  0.31370019  0.87312492    -0.07800
C4572       C  0.53252853  0.29996654  0.89659812    -0.08500
C4573       C  0.54240479  0.30673613  0.92297323    -0.03100
C4574       C  0.55985664  0.32991951  0.92575333     0.03700
N4575       N  0.57051714  0.33799600  0.95195205     0.66200
H4576       H  0.58397599  0.36037349  0.90474242     0.15100
H4577       H  0.51828941  0.28292106  0.89396023     0.14800
N4578       N  0.53181262  0.30515745  0.84689068     0.73900
O4579       O  0.59335969  0.32837231  0.96009652    -0.39500
O4580       O  0.56026773  0.35868451  0.96399001    -0.39500
O4581       O  0.54327145  0.28510491  0.83486579    -0.40200
O4582       O  0.50757926  0.31186480  0.84006179    -0.40200
C4583       C  0.58132643  0.17243005  0.95052649    -0.12500
C4584       C  0.58562647  0.19967439  0.95971949     0.04500
C4585       C  0.61319506  0.20965018  0.96035020    -0.07800
C4586       C  0.63478250  0.19309125  0.95073382    -0.08500
C4587       C  0.63002677  0.16729992  0.93831287    -0.03100
C4588       C  0.60302884  0.15644584  0.93958906     0.03700
N4589       N  0.59641556  0.13078406  0.92691567     0.66200
H4590       H  0.56064866  0.16404627  0.95005791     0.15100
H4591       H  0.65528356  0.20192587  0.95063977     0.14800
N4592       N  0.61977329  0.23743281  0.96822519     0.73900
O4593       O  0.58702372  0.13120099  0.90274254    -0.39500
O4594       O  0.59258282  0.10969914  0.94169718    -0.39500
O4595       O  0.63627141  0.24143971  0.98796862    -0.40200
O4596       O  0.61589664  0.25668139  0.95107850    -0.40200
C4597       C  0.54360723  0.29659320  0.10367242    -0.12500
C4598       C  0.54927927  0.30349853  0.07638261     0.04500
C4599       C  0.56702411  0.32635997  0.07172219    -0.07800
C4600       C  0.57887301  0.34091027  0.09415847    -0.08500
C4601       C  0.57360005  0.33324414  0.12156695    -0.03100
C4602       C  0.55483656  0.31125706  0.12588100     0.03700
N4603       N  0.54702708  0.30297413  0.15284454     0.66200
H4604       H  0.53096800  0.27886526  0.10808861     0.15100
H4605       H  0.59372017  0.35706281  0.09001688     0.14800
N4606       N  0.57540438  0.33348825  0.04455209     0.73900
O4607       O  0.52395419  0.31091265  0.16169034    -0.39500
O4608       O  0.55817723  0.28178483  0.16333582    -0.39500
O4609       O  0.56621518  0.35532753  0.03355391    -0.40200
O4610       O  0.59613514  0.32162240  0.03430926    -0.40200
C4611       C  0.60264170  0.19833110  0.03447669    -0.12500
C4612       C  0.57542235  0.19392129  0.04304107     0.04500
C4613       C  0.57098972  0.17246039  0.06241421    -0.07800
C4614       C  0.59378309  0.15823513  0.07443543    -0.08500
C4615       C  0.62122218  0.16465157  0.06729488    -0.03100
C4616       C  0.62515269  0.18402706  0.04594172     0.03700
N4617       N  0.65211714  0.19011092  0.03603645     0.66200
H4618       H  0.60667937  0.21397127  0.01922728     0.15100
H4619       H  0.59001602  0.14342669  0.09070270     0.14800
N4620       N  0.54383983  0.16608748  0.07156141     0.73900
O4621       O  0.66116350  0.17706578  0.01552743    -0.39500
O4622       O  0.66373587  0.21227787  0.04330659    -0.39500
O4623       O  0.53183356  0.14492324  0.06223893    -0.40200
O4624       O  0.53459916  0.17771457  0.09280676    -0.40200
C4625       C  0.42906473  0.32882637  0.06429295    -0.12500
C4626       C  0.44423404  0.30433425  0.06821055     0.04500
C4627       C  0.44899251  0.29569201  0.09578664    -0.07800
C4628       C  0.44002583  0.31181028  0.11805822    -0.08500
C4629       C  0.42452919  0.33610023  0.11440892    -0.03100
C4630       C  0.41896558  0.34439182  0.08684678     0.03700
N4631       N  0.40061232  0.36670915  0.08109005     0.66200
H4632       H  0.42433889  0.33561767  0.04356714     0.15100
H4633       H  0.44369549  0.30397100  0.13863741     0.14800
N4634       N  0.45924745  0.26866824  0.10195358     0.73900
O4635       O  0.41026646  0.39067018  0.07766738    -0.39500
O4636       O  0.37690690  0.36114160  0.07189510    -0.39500
O4637       O  0.48350698  0.26622460  0.11098717    -0.40200
O4638       O  0.44204483  0.25014272  0.10793334    -0.40200
C4639       C  0.43796026  0.18478679  0.08437881    -0.12500
C4640       C  0.43579453  0.20714766  0.06592828     0.04500
C4641       C  0.40897125  0.21724462  0.05953156    -0.07800
C4642       C  0.38563850  0.20398959  0.06960595    -0.08500
C4643       C  0.38744530  0.18164232  0.08783293    -0.03100
C4644       C  0.41415736  0.17230428  0.09566733     0.03700
N4645       N  0.41764243  0.15059944  0.11530137     0.66200
H4646       H  0.45815802  0.17710197  0.09024834     0.15100
H4647       H  0.36570210  0.21276875  0.06433918     0.14800
N4648       N  0.40467587  0.24345237  0.04654841     0.73900
O4649       O  0.42051641  0.12601904  0.10706045    -0.39500
O4650       O  0.42417830  0.15661456  0.13970203    -0.39500
O4651       O  0.39600362  0.24411202  0.02209404    -0.40200
O4652       O  0.39963553  0.26394897  0.06174308    -0.40200
C4653       C  0.92132541  0.27851227  0.59050648    -0.12500
C4654       C  0.92672045  0.27989254  0.56230744     0.04500
C4655       C  0.90472061  0.28777983  0.54446978    -0.07800
C4656       C  0.87871909  0.29431966  0.55467539    -0.08500
C4657       C  0.87376631  0.29363387  0.58258112    -0.03100
C4658       C  0.89523635  0.28546602  0.60069598     0.03700
N4659       N  0.89125042  0.28558403  0.62970105     0.66200
H4660       H  0.93738702  0.27221050  0.60478804     0.15100
H4661       H  0.86279267  0.30163678  0.54069371     0.14800
N4662       N  0.90805416  0.29002151  0.51570547     0.73900
O4663       O  0.88456471  0.26348294  0.64172026    -0.39500
O4664       O  0.90038599  0.30557439  0.64362011    -0.39500
O4665       O  0.89799811  0.27106831  0.50097979    -0.40200
O4666       O  0.91043120  0.31399528  0.50576772    -0.40200
C4667       C  0.89784429  0.18301302  0.58631821    -0.12500
C4668       C  0.91432860  0.17063203  0.60683575     0.04500
C4669       C  0.94287449  0.16773466  0.60179610    -0.07800
C4670       C  0.95417023  0.17827665  0.57738546    -0.08500
C4671       C  0.93776157  0.19196286  0.55752367    -0.03100
C4672       C  0.90910374  0.19366675  0.56208385     0.03700
N4673       N  0.89120181  0.20809327  0.54356241     0.66200
H4674       H  0.87589001  0.18553004  0.58945050     0.15100
H4675       H  0.97624607  0.17663271  0.57448879     0.14800
N4676       N  0.96082287  0.15432380  0.62107345     0.73900
O4677       O  0.88041309  0.19501488  0.52384764    -0.39500
O4678       O  0.88020873  0.23040779  0.55134042    -0.39500
O4679       O  0.96957998  0.13030528  0.61580965    -0.40200
O4680       O  0.97317280  0.16863778  0.63896138    -0.40200
C4681       C  0.90938368  0.28191960  0.44446986    -0.12500
C4682       C  0.93164983  0.29813625  0.45339402     0.04500
C4683       C  0.93039515  0.32701005  0.44876210    -0.07800
C4684       C  0.90728655  0.33864706  0.43512789    -0.08500
C4685       C  0.88532511  0.32194859  0.42579217    -0.03100
C4686       C  0.88679865  0.29313665  0.43082569     0.03700
N4687       N  0.86624776  0.27431429  0.42115934     0.66200
H4688       H  0.90965175  0.25965656  0.44728442     0.15100
H4689       H  0.90667556  0.36078744  0.43164360     0.14800
N4690       N  0.95169799  0.34486900  0.45851919     0.73900
O4691       O  0.86985127  0.26226036  0.39847308    -0.39500
O4692       O  0.84933821  0.26430847  0.43802629    -0.39500
O4693       O  0.96960862  0.35354154  0.44197062    -0.40200
O4694       O  0.94902552  0.35666624  0.48147103    -0.40200
C4695       C  0.93280149  0.20445278  0.38203073    -0.12500
C4696       C  0.92311151  0.17748005  0.38592003     0.04500
C4697       C  0.93178692  0.16303555  0.40990234    -0.07800
C4698       C  0.94935482  0.17578783  0.42926247    -0.08500
C4699       C  0.95895368  0.20286753  0.42537758    -0.03100
C4700       C  0.95030722  0.21723374  0.40112766     0.03700
N4701       N  0.95817338  0.24526808  0.39565846     0.66200
H4702       H  0.92651795  0.21607701  0.36397837     0.15100
H4703       H  0.95546824  0.16435112  0.44747713     0.14800
N4704       N  0.92369758  0.13508800  0.41468322     0.73900
O4705       O  0.97872527  0.25001727  0.38070787    -0.39500
O4706       O  0.94078254  0.26433328  0.39903639    -0.39500
O4707       O  0.93913537  0.11566004  0.40672660    -0.40200
O4708       O  0.90553785  0.13019108  0.43242521    -0.40200
C4709       C  0.13195591  0.32238169  0.45674668    -0.12500
C4710       C  0.12452492  0.34272361  0.43728796     0.04500
C4711       C  0.09616427  0.34850242  0.43382226    -0.07800
C4712       C  0.07624873  0.33218147  0.44739581    -0.08500
C4713       C  0.08389334  0.30946748  0.46411984    -0.03100
C4714       C  0.11234154  0.30538856  0.46939205     0.03700
N4715       N  0.12202100  0.28262002  0.48561579     0.66200
H4716       H  0.15353179  0.31762400  0.46005156     0.15100
H4717       H  0.05464282  0.33619353  0.44323293     0.14800
N4718       N  0.08706749  0.36895051  0.41464684     0.73900
O4719       O  0.12812276  0.26015910  0.47388530    -0.39500
O4720       O  0.13046246  0.28684400  0.50980914    -0.39500
O4721       O  0.07786945  0.36138994  0.39155410    -0.40200
O4722       O  0.08220239  0.39318082  0.42300264    -0.40200
C4723       C  0.06314625  0.17898695  0.38481411    -0.12500
C4724       C  0.08534299  0.16235465  0.39287481     0.04500
C4725       C  0.09449590  0.16355536  0.42057166    -0.07800
C4726       C  0.08137198  0.18128441  0.43917312    -0.08500
C4727       C  0.05991739  0.19895118  0.43066560    -0.03100
C4728       C  0.05095605  0.19761439  0.40307307     0.03700
N4729       N  0.02945614  0.21486432  0.39285535     0.66200
H4730       H  0.05656887  0.17928589  0.36349796     0.15100
H4731       H  0.08878829  0.18196877  0.46022041     0.14800
N4732       N  0.11766160  0.14774439  0.43002268     0.73900
O4733       O  0.03558121  0.23866451  0.38416406    -0.39500
O4734       O  0.00806689  0.20326608  0.38368726    -0.39500
O4735       O  0.13992964  0.16001391  0.43561840    -0.40200
O4736       O  0.11375593  0.12376692  0.43947020    -0.40200
C4737       C  0.07870581  0.32739582  0.59709556    -0.12500
C4738       C  0.10149782  0.33827820  0.58270784     0.04500
C4739       C  0.10068308  0.33818120  0.55390424    -0.07800
C4740       C  0.07984776  0.32344843  0.54020703    -0.08500
C4741       C  0.05902439  0.30988167  0.55486603    -0.03100
C4742       C  0.05744983  0.31354647  0.58339732     0.03700
N4743       N  0.03575619  0.30126052  0.59895699     0.66200
H4744       H  0.07806437  0.32804476  0.61933643     0.15100
H4745       H  0.08047193  0.32184338  0.51813078     0.14800
N4746       N  0.12025680  0.35352623  0.53842616     0.73900
O4747       O  0.03978784  0.27843904  0.61096564    -0.39500
O4748       O  0.01468594  0.31542544  0.60473744    -0.39500
O4749       O  0.14144624  0.34172116  0.52918147    -0.40200
O4750       O  0.11463478  0.37798108  0.53114334    -0.40200
C4751       C  0.07003543  0.15431284  0.59983576    -0.12500
C4752       C  0.06753556  0.16436438  0.62689288     0.04500
C4753       C  0.05228404  0.18914536  0.63054944    -0.07800
C4754       C  0.04115724  0.20355094  0.60790810    -0.08500
C4755       C  0.04498969  0.19456008  0.58073703    -0.03100
C4756       C  0.05911910  0.16904567  0.57698402     0.03700
N4757       N  0.06339270  0.15805664  0.55012780     0.66200
H4758       H  0.08183711  0.13562762  0.59614005     0.15100
H4759       H  0.02994733  0.22254131  0.61181499     0.14800
N4760       N  0.04788374  0.20035161  0.65726881     0.73900
O4761       O  0.08587849  0.16259205  0.53808802    -0.39500
O4762       O  0.04774208  0.13918906  0.54133555    -0.39500
O4763       O  0.06272331  0.22014619  0.66545880    -0.40200
O4764       O  0.02514200  0.19594473  0.66882934    -0.40200
C4765       C  0.32770539  0.91918422  0.45199989    -0.12500
C4766       C  0.29907727  0.91701760  0.45624281     0.04500
C4767       C  0.28622153  0.89147802  0.44959315    -0.07800
C4768       C  0.30187857  0.86924253  0.43983125    -0.08500
C4769       C  0.33010437  0.87167740  0.43407549    -0.03100
C4770       C  0.34315280  0.89704858  0.44076634     0.03700
N4771       N  0.37186645  0.90100481  0.43591094     0.66200
H4772       H  0.33814755  0.93833170  0.45699316     0.15100
H4773       H  0.29102322  0.85036431  0.43470003     0.14800
N4774       N  0.25692470  0.88794706  0.45100729     0.73900
O4775       O  0.37940845  0.91350237  0.41448150    -0.39500
O4776       O  0.38879994  0.89777397  0.45544667    -0.39500
O4777       O  0.24146563  0.90248380  0.43582956    -0.40200
O4778       O  0.24707913  0.86678005  0.46252098    -0.40200
C4779       C  0.17789370  0.92482995  0.44391510    -0.12500
C4780       C  0.19339500  0.94702931  0.43353493     0.04500
C4781       C  0.19248119  0.95182422  0.40482270    -0.07800
C4782       C  0.17765019  0.93415371  0.38744770    -0.08500
C4783       C  0.16418586  0.91069469  0.39738949    -0.03100
C4784       C  0.16349929  0.90666608  0.42627545     0.03700
N4785       N  0.14930977  0.88376376  0.43813819     0.66200
H4786       H  0.17815013  0.92056979  0.46577829     0.15100
H4787       H  0.17782719  0.93831950  0.36555959     0.14800
N4788       N  0.20567970  0.97494239  0.39246025     0.73900
O4789       O  0.16265905  0.86226386  0.44467081    -0.39500
O4790       O  0.12560946  0.88751899  0.44798885    -0.39500
O4791       O  0.23110323  0.97340639  0.38737314    -0.40200
O4792       O  0.19090159  0.99098938  0.37812752    -0.40200
C4793       C  0.32379272  0.92867012  0.57925766    -0.12500
C4794       C  0.30298950  0.92535633  0.55934995     0.04500
C4795       C  0.29836008  0.89829256  0.54882717    -0.07800
C4796       C  0.31444902  0.87590839  0.55761105    -0.08500
C4797       C  0.33457232  0.87898778  0.57781362    -0.03100
C4798       C  0.33938294  0.90581606  0.58870631     0.03700
N4799       N  0.35839987  0.90990869  0.61086229     0.66200
H4800       H  0.32760276  0.94893065  0.58798425     0.15100
H4801       H  0.30980908  0.85542882  0.54982953     0.14800
N4802       N  0.27561438  0.89216073  0.53123269     0.73900
O4803       O  0.38249437  0.91810538  0.60580575    -0.39500
O4804       O  0.34953739  0.91113918  0.63513993    -0.39500
O4805       O  0.28055403  0.88168699  0.50810162    -0.40200
O4806       O  0.25251362  0.88766543  0.54204710    -0.40200
C4807       C  0.21261524  0.93385630  0.59039932    -0.12500
C4808       C  0.20255805  0.92988841  0.56356882     0.04500
C4809       C  0.17793451  0.91545435  0.55932304    -0.07800
C4810       C  0.16405603  0.90470957  0.58186270    -0.08500
C4811       C  0.17466669  0.90745002  0.60874756    -0.03100
C4812       C  0.19904927  0.92273614  0.61296031     0.03700
N4813       N  0.21094437  0.92640898  0.63966010     0.66200
H4814       H  0.23166720  0.94503239  0.59387522     0.15100
H4815       H  0.14508048  0.89366532  0.57807554     0.14800
N4816       N  0.16644535  0.91205182  0.53243920     0.73900
O4817       O  0.22928904  0.90978085  0.64799578    -0.39500
O4818       O  0.20775447  0.94918044  0.65192603    -0.39500
O4819       O  0.16860837  0.88899267  0.52048692    -0.40200
O4820       O  0.14957499  0.92979377  0.52331858    -0.40200
C4821       C  0.31044222  0.11699159  0.54769209    -0.12500
C4822       C  0.33211916  0.11231937  0.56600554     0.04500
C4823       C  0.34105159  0.08474244  0.57049993    -0.07800
C4824       C  0.32699391  0.06253624  0.55790848    -0.08500
C4825       C  0.30377210  0.06733977  0.54113545    -0.03100
C4826       C  0.29621893  0.09526647  0.53536008     0.03700
N4827       N  0.27289885  0.10243754  0.51859083     0.66200
H4828       H  0.30219995  0.13768203  0.54527762     0.15100
H4829       H  0.33327058  0.04150710  0.56259179     0.14800
N4830       N  0.36373804  0.07890847  0.58846012     0.73900
O4831       O  0.24950399  0.10411595  0.52966364    -0.39500
O4832       O  0.27698282  0.11592312  0.49681322    -0.39500
O4833       O  0.35935037  0.06940604  0.61217881    -0.40200
O4834       O  0.38788878  0.07863769  0.57902734    -0.40200
C4835       C  0.21408993  0.03526598  0.60700132    -0.12500
C4836       C  0.20084817  0.03359743  0.58118637     0.04500
C4837       C  0.17348201  0.04396584  0.57937833    -0.07800
C4838       C  0.16072488  0.05634304  0.60245187    -0.08500
C4839       C  0.17452914  0.05903307  0.62787731    -0.03100
C4840       C  0.20144775  0.04759777  0.62993836     0.03700
N4841       N  0.21660687  0.04862711  0.65519834     0.66200
H4842       H  0.23488010  0.02736818  0.60947630     0.15100
H4843       H  0.14025952  0.06505640  0.59998164     0.14800
N4844       N  0.15848160  0.04300085  0.55407964     0.73900
O4845       O  0.20869248  0.03469365  0.67556741    -0.39500
O4846       O  0.23810067  0.06315637  0.65709893    -0.39500
O4847       O  0.14014582  0.02483483  0.55076260    -0.40200
O4848       O  0.15921962  0.06348850  0.53801206    -0.40200
C4849       C  0.33896351  0.09352456  0.43427662    -0.12500
C4850       C  0.32316249  0.11521548  0.42300663     0.04500
C4851       C  0.29444257  0.11529289  0.42672567    -0.07800
C4852       C  0.28204137  0.09366784  0.44098907    -0.08500
C4853       C  0.29769983  0.07212295  0.45282286    -0.03100
C4854       C  0.32655275  0.07221082  0.44939602     0.03700
N4855       N  0.34360944  0.05142052  0.46169493     0.66200
H4856       H  0.36113594  0.09338441  0.43173350     0.15100
H4857       H  0.25978516  0.09385409  0.44276736     0.14800
N4858       N  0.27732878  0.13649656  0.41516447     0.73900
O4859       O  0.35186811  0.03137141  0.44730887    -0.39500
O4860       O  0.35529316  0.05634935  0.48439971    -0.39500
O4861       O  0.26275568  0.13103770  0.39431262    -0.40200
O4862       O  0.27145849  0.15741573  0.42950804    -0.40200
C4863       C  0.21019812  0.04133647  0.39949806    -0.12500
C4864       C  0.19798015  0.04224052  0.42557066     0.04500
C4865       C  0.17277784  0.05654928  0.42856483    -0.07800
C4866       C  0.16117684  0.07036307  0.40580721    -0.08500
C4867       C  0.17429419  0.07006753  0.38005456    -0.03100
C4868       C  0.19848837  0.05421959  0.37690073     0.03700
N4869       N  0.21219161  0.05145256  0.35109313     0.66200
H4870       H  0.22944050  0.03044193  0.39619253     0.15100
H4871       H  0.14253418  0.08238105  0.40866772     0.14800
N4872       N  0.15975829  0.05903622  0.45467053     0.73900
O4873       O  0.23254851  0.06672172  0.34587113    -0.39500
O4874       O  0.20821645  0.03004888  0.33680827    -0.39500
O4875       O  0.16316624  0.08081234  0.46856033    -0.40200
O4876       O  0.14032902  0.04288195  0.46066897    -0.40200
C4877       C  0.56426248  0.93319631  0.31190777    -0.12500
C4878       C  0.54308230  0.92728820  0.29325255     0.04500
C4879       C  0.54023757  0.89994442  0.28323315    -0.07800
C4880       C  0.55837952  0.87922104  0.29232391    -0.08500
C4881       C  0.57929439  0.88508001  0.31146484    -0.03100
C4882       C  0.58264356  0.91277003  0.32052020     0.03700
N4883       N  0.60534929  0.92103785  0.33745295     0.66200
H4884       H  0.56768975  0.95424497  0.31879521     0.15100
H4885       H  0.55588576  0.85845048  0.28447522     0.14800
N4886       N  0.51946226  0.89295153  0.26344046     0.73900
O4887       O  0.62802634  0.92695474  0.32638170    -0.39500
O4888       O  0.60109450  0.92814536  0.36199945    -0.39500
O4889       O  0.52627075  0.88578619  0.23951167    -0.40200
O4890       O  0.49430648  0.89409334  0.26971961    -0.40200
C4891       C  0.58091603  0.92495231  0.16249079    -0.12500
C4892       C  0.60882893  0.93313874  0.16540940     0.04500
C4893       C  0.61402534  0.95736143  0.18063227    -0.07800
C4894       C  0.59237963  0.97129604  0.19404092    -0.08500
C4895       C  0.56488835  0.96215016  0.19273686    -0.03100
C4896       C  0.55916990  0.93921141  0.17571315     0.03700
N4897       N  0.53165345  0.92945227  0.17229960     0.66200
H4898       H  0.57588210  0.90663908  0.15067213     0.15100
H4899       H  0.59726673  0.98904580  0.20657667     0.14800
N4900       N  0.64118461  0.96827480  0.18276306     0.73900
O4901       O  0.51739949  0.93870576  0.15256224    -0.39500
O4902       O  0.52451077  0.90725757  0.18386356    -0.39500
O4903       O  0.64738558  0.98916122  0.16856400    -0.40200
O4904       O  0.65626381  0.96149233  0.20289908    -0.40200
C4905       C  0.44879019  0.92477334  0.31137919    -0.12500
C4906       C  0.43308021  0.94837755  0.30435793     0.04500
C4907       C  0.40508000  0.94906187  0.31216534    -0.07800
C4908       C  0.39325418  0.92602884  0.32506194    -0.08500
C4909       C  0.40860020  0.90186741  0.33056298    -0.03100
C4910       C  0.43687407  0.90164573  0.32411427     0.03700
N4911       N  0.45398623  0.87849611  0.33097382     0.66200
H4912       H  0.47054398  0.92405774  0.30667854     0.15100
H4913       H  0.37153981  0.92683333  0.33008823     0.14800
N4914       N  0.38802701  0.97259020  0.30663851     0.73900
O4915       O  0.45860191  0.86020916  0.31308776    -0.39500
O4916       O  0.46912319  0.87961076  0.35212463    -0.39500
O4917       O  0.37097065  0.97172700  0.28698176    -0.40200
O4918       O  0.38537173  0.99092717  0.32487617    -0.40200
C4919       C  0.40420126  0.92248728  0.17547437    -0.12500
C4920       C  0.37824192  0.93047568  0.18565104     0.04500
C4921       C  0.37683166  0.95195282  0.20505528    -0.07800
C4922       C  0.40138598  0.96342311  0.21518380    -0.08500
C4923       C  0.42726381  0.95370630  0.20615096    -0.03100
C4924       C  0.42838894  0.93371413  0.18547958     0.03700
N4925       N  0.45382551  0.92492966  0.17377414     0.66200
H4926       H  0.40616694  0.90697178  0.15959028     0.15100
H4927       H  0.40018867  0.97916866  0.23098182     0.14800
N4928       N  0.35102759  0.96195571  0.21499102     0.73900
O4929       O  0.46409425  0.90209931  0.18128272    -0.39500
O4930       O  0.46089134  0.93513108  0.15103414    -0.39500
O4931       O  0.33982304  0.95012609  0.23513145    -0.40200
O4932       O  0.34221782  0.98528550  0.20716617    -0.40200
C4933       C  0.47443190  0.09058741  0.33509572    -0.12500
C4934       C  0.45934691  0.07563427  0.31517386     0.04500
C4935       C  0.43086472  0.08073946  0.31278806    -0.07800
C4936       C  0.41858363  0.10195740  0.32788067    -0.08500
C4937       C  0.43403733  0.11907072  0.34530403    -0.03100
C4938       C  0.46188925  0.11229968  0.35012912     0.03700
N4939       N  0.47763795  0.12767951  0.36965787     0.66200
H4940       H  0.49604251  0.08610576  0.33832234     0.15100
H4941       H  0.39702592  0.10623531  0.32427230     0.14800
N4942       N  0.41445697  0.06639798  0.29303418     0.73900
O4943       O  0.47602873  0.12167592  0.39482129    -0.39500
O4944       O  0.48805613  0.15044627  0.36270200    -0.39500
O4945       O  0.39859232  0.04740999  0.30094434    -0.40200
O4946       O  0.41026797  0.07753738  0.26996296    -0.40200
C4947       C  0.41030166  0.04722397  0.19254782    -0.12500
C4948       C  0.43055353  0.06191127  0.20688219     0.04500
C4949       C  0.43202128  0.09090834  0.20410679    -0.07800
C4950       C  0.41255896  0.10491406  0.18794938    -0.08500
C4951       C  0.39175555  0.09042612  0.17403544    -0.03100
C4952       C  0.39102983  0.06116616  0.17603155     0.03700
N4953       N  0.36978671  0.04544844  0.16297357     0.66200
H4954       H  0.40928327  0.02489060  0.19440092     0.15100
H4955       H  0.41322268  0.12730478  0.18699684     0.14800
N4956       N  0.45241123  0.10655135  0.21857093     0.73900
O4957       O  0.37331386  0.03625555  0.13900630    -0.39500
O4958       O  0.34694629  0.04207510  0.17474063    -0.39500
O4959       O  0.47345658  0.11482821  0.20594114    -0.40200
O4960       O  0.44638452  0.11738607  0.24133741    -0.40200
C4961       C  0.53711857  0.10533055  0.30600621    -0.12500
C4962       C  0.54816862  0.07882109  0.31020441     0.04500
C4963       C  0.57133964  0.07548665  0.32735832    -0.07800
C4964       C  0.58461636  0.09898116  0.33779479    -0.08500
C4965       C  0.57526841  0.12578548  0.33095043    -0.03100
C4966       C  0.55047693  0.12876116  0.31574193     0.03700
N4967       N  0.53982773  0.15521503  0.30760689     0.66200
H4968       H  0.51912425  0.10808689  0.29292813     0.15100
H4969       H  0.60340651  0.09619678  0.34964573     0.14800
N4970       N  0.58354192  0.04884927  0.33149950     0.73900
O4971       O  0.54830829  0.16602658  0.28564251    -0.39500
O4972       O  0.51735317  0.16354924  0.31751051    -0.39500
O4973       O  0.60201241  0.04036421  0.31541493    -0.40200
O4974       O  0.57401074  0.03275590  0.34948355    -0.40200
C4975       C  0.56753846  0.06492019  0.17708931    -0.12500
C4976       C  0.57708188  0.05100010  0.20076265     0.04500
C4977       C  0.60570360  0.05064073  0.20661250    -0.07800
C4978       C  0.62357292  0.06515830  0.18963541    -0.08500
C4979       C  0.61349266  0.08142825  0.16791553    -0.03100
C4980       C  0.58536063  0.08058273  0.16104975     0.03700
N4981       N  0.57442294  0.09609814  0.13844555     0.66200
H4982       H  0.54581232  0.06514916  0.17180301     0.15100
H4983       H  0.64523331  0.06585118  0.19523029     0.14800
N4984       N  0.61689368  0.03814848  0.23094876     0.73900
O4985       O  0.57254206  0.08478114  0.11516292    -0.39500
O4986       O  0.56107099  0.11805013  0.14303171    -0.39500
O4987       O  0.63390886  0.01848920  0.22868736    -0.40200
O4988       O  0.61628770  0.05159125  0.25315651    -0.40200
C4989       C  0.89671195  0.46099355  0.28841791    -0.12500
C4990       C  0.92413014  0.46002870  0.29815356     0.04500
C4991       C  0.92890512  0.44708102  0.32385970    -0.07800
C4992       C  0.90717966  0.43330692  0.33750720    -0.08500
C4993       C  0.88026760  0.43238698  0.32633092    -0.03100
C4994       C  0.87507593  0.44783402  0.30212751     0.03700
N4995       N  0.84799404  0.44995568  0.29056182     0.66200
H4996       H  0.89184831  0.47153704  0.26932929     0.15100
H4997       H  0.91180315  0.42212594  0.35628737     0.14800
N4998       N  0.95572932  0.44682960  0.33605095     0.73900
O4999       O  0.83371635  0.47119525  0.29556963    -0.39500
O5000       O  0.84155201  0.43490302  0.27035568    -0.39500
O5001       O  0.96130132  0.46394073  0.35483580    -0.40200
O5002       O  0.97124805  0.42614617  0.33257759    -0.40200
C5003       C  0.93013409  0.40518383  0.15569140    -0.12500
C5004       C  0.93295598  0.37918193  0.16853925     0.04500
C5005       C  0.94978143  0.37652812  0.19208375    -0.07800
C5006       C  0.96111423  0.39998319  0.20366525    -0.08500
C5007       C  0.95677421  0.42627244  0.19209912    -0.03100
C5008       C  0.94228731  0.42872262  0.16711669     0.03700
N5009       N  0.93844686  0.45494447  0.15401193     0.66200
H5010       H  0.91795784  0.40738896  0.13706806     0.15100
H5011       H  0.97261030  0.39749424  0.22268412     0.14800
N5012       N  0.95444854  0.35057280  0.20556023     0.73900
O5013       O  0.95763635  0.46528649  0.14000817    -0.39500
O5014       O  0.91675658  0.46874385  0.15817336    -0.39500
O5015       O  0.97541099  0.33647474  0.19933946    -0.40200
O5016       O  0.94236250  0.34555708  0.22786867    -0.40200
C5017       C  0.92221394  0.58375542  0.33242145    -0.12500
C5018       C  0.89497018  0.57452743  0.33545596     0.04500
C5019       C  0.88705539  0.54945333  0.32266031    -0.07800
C5020       C  0.90514581  0.53614133  0.30481796    -0.08500
C5021       C  0.93147831  0.54659058  0.30042098    -0.03100
C5022       C  0.94043446  0.57006996  0.31502716     0.03700
N5023       N  0.96687891  0.58200847  0.31013995     0.66200
H5024       H  0.92896979  0.60279082  0.34206844     0.15100
H5025       H  0.89834856  0.51787737  0.29391484     0.14800
N5026       N  0.86063608  0.53742393  0.32682895     0.73900
O5027       O  0.96955223  0.59959277  0.29116370    -0.39500
O5028       O  0.98578989  0.57924034  0.32785424    -0.39500
O5029       O  0.84220861  0.54075853  0.30873178    -0.40200
O5030       O  0.85874380  0.51736338  0.34329269    -0.40200
C5031       C  0.92677218  0.59972189  0.15430098    -0.12500
C5032       C  0.93077397  0.62646263  0.16496059     0.04500
C5033       C  0.94872045  0.62990079  0.18744913    -0.07800
C5034       C  0.95947304  0.60674566  0.20089267    -0.08500
C5035       C  0.95397774  0.57980754  0.19175732    -0.03100
C5036       C  0.93818086  0.57640810  0.16741154     0.03700
N5037       N  0.93115195  0.54960870  0.15719395     0.66200
H5038       H  0.91295371  0.59659697  0.13700364     0.15100
H5039       H  0.97147776  0.60987737  0.21933313     0.14800
N5040       N  0.95597577  0.65680280  0.19715193     0.73900
O5041       O  0.90860924  0.53887372  0.16426412    -0.39500
O5042       O  0.94328356  0.54046668  0.13621123    -0.39500
O5043       O  0.94523396  0.66595510  0.21887009    -0.40200
O5044       O  0.97739444  0.66815624  0.18797474    -0.40200
C5045       C  0.07158582  0.55848441  0.31072680    -0.12500
C5046       C  0.07715182  0.54266728  0.28734455     0.04500
C5047       C  0.10470622  0.53984380  0.27855363    -0.07800
C5048       C  0.12570293  0.55408325  0.29211005    -0.08500
C5049       C  0.12001755  0.57122979  0.31453942    -0.03100
C5050       C  0.09260325  0.57270648  0.32438547     0.03700
N5051       N  0.08543722  0.58875510  0.34793274     0.66200
H5052       H  0.05060749  0.56077961  0.31791361     0.15100
H5053       H  0.14660185  0.55184343  0.28470450     0.14800
N5054       N  0.11207574  0.52175685  0.25661516     0.73900
O5055       O  0.07584965  0.61284021  0.34459102    -0.39500
O5056       O  0.08205779  0.57669453  0.37066084    -0.39500
O5057       O  0.11359626  0.53128684  0.23252838    -0.40200
O5058       O  0.12465744  0.49962295  0.26241748    -0.40200
C5059       C  0.04509174  0.63166618  0.18603488    -0.12500
C5060       C  0.05887867  0.62684839  0.16135476     0.04500
C5061       C  0.05658488  0.60046439  0.14904188    -0.07800
C5062       C  0.04316536  0.57899455  0.16294240    -0.08500
C5063       C  0.03342694  0.58281176  0.18972870    -0.03100
C5064       C  0.03414256  0.60995184  0.20121381     0.03700
N5065       N  0.02760502  0.61567087  0.22938583     0.66200
H5066       H  0.04610332  0.65186967  0.19565843     0.15100
H5067       H  0.04289469  0.55856830  0.15376531     0.14800
N5068       N  0.07114271  0.59380440  0.12462299     0.73900
O5069       O  0.04439058  0.60800283  0.24783126    -0.39500
O5070       O  0.01160745  0.63557752  0.23471434    -0.39500
O5071       O  0.09354026  0.58069066  0.12676145    -0.40200
O5072       O  0.05870593  0.59450545  0.10178804    -0.40200
C5073       C  0.07177958  0.44890918  0.31237792    -0.12500
C5074       C  0.07526783  0.45271207  0.28399884     0.04500
C5075       C  0.09807224  0.43967893  0.27115679    -0.07800
C5076       C  0.11666873  0.42384861  0.28694963    -0.08500
C5077       C  0.11244691  0.41938799  0.31514939    -0.03100
C5078       C  0.08976780  0.43221910  0.32778959     0.03700
N5079       N  0.08496702  0.42908277  0.35648116     0.66200
H5080       H  0.05461109  0.45861029  0.32279052     0.15100
H5081       H  0.13391491  0.41395347  0.27681655     0.14800
N5082       N  0.10142057  0.44005677  0.24196213     0.73900
O5083       O  0.09344167  0.44746400  0.37284502    -0.39500
O5084       O  0.06670809  0.41238422  0.36428984    -0.39500
O5085       O  0.12172601  0.45248926  0.23168749    -0.40200
O5086       O  0.08905919  0.42210943  0.22773309    -0.40200
C5087       C  0.08010162  0.41348935  0.15754128    -0.12500
C5088       C  0.07256545  0.38580194  0.16216202     0.04500
C5089       C  0.04861855  0.38036973  0.17760016    -0.07800
C5090       C  0.03352733  0.40212915  0.18886132    -0.08500
C5091       C  0.04099525  0.42973612  0.18474691    -0.03100
C5092       C  0.06432225  0.43548049  0.16836864     0.03700
N5093       N  0.07365557  0.46324326  0.16456722     0.66200
H5094       H  0.09858420  0.41804451  0.14603839     0.15100
H5095       H  0.01650264  0.39720695  0.20214218     0.14800
N5096       N  0.04065019  0.35270867  0.18422246     0.73900
O5097       O  0.08997276  0.47382991  0.18186774    -0.39500
O5098       O  0.06991225  0.47503144  0.14170161    -0.39500
O5099       O  0.04344656  0.34403428  0.20854518    -0.40200
O5100       O  0.02605877  0.33918261  0.16745221    -0.40200
loop_ 
_geom_bond_atom_site_label_1 
_geom_bond_atom_site_label_2 
_geom_bond_distance 
_geom_bond_site_symmetry_2 
_ccdc_geom_bond_type 
O1            C9   1.268       .  A
O1          Co21   1.962   1_455  S
O2           C10   1.254       .  A
O2          Co22   1.937       .  S
O3           C11   1.266       .  A
O3          Co23   2.002       .  S
O4           C12   1.275       .  A
O4          Co24   2.024       .  S
O5           C11   1.265       .  A
O5          Co22   1.966   1_455  S
O6           C12   1.277       .  A
O6          Co21   2.011       .  S
O7           C10   1.272       .  A
O7          Co24   2.030       .  S
O8            C9   1.274       .  A
O8          Co23   2.040       .  S
C9         C5074   1.492       .  S
C10        C5021   1.459       .  S
C11        C5046   1.473       .  S
C12        C4990   1.512       .  S
O13          C26   1.262       .  A
O13         Co21   1.970       .  S
O14          C27   1.260       .  A
O14         Co22   1.981   1_455  S
O15          C28   1.265       .  A
O15         Co23   1.965       .  S
O16          C29   1.261       .  A
O16         Co24   1.966       .  S
O17          C29   1.277       .  A
O17         Co22   2.038       .  S
O18          C28   1.278       .  A
O18         Co21   2.036   1_455  S
O19          C26   1.262       .  A
O19         Co24   1.970       .  S
O20          C27   1.271       .  A
O20         Co23   1.994       .  S
Co21         O25   2.091       .  S
Co22         O25   2.076       .  S
Co23         O25   2.121   1_455  S
Co24         O25   2.108       .  S
C26        C5007   1.464       .  S
C27        C5063   1.485       .  S
C28        C5091   1.485       .  S
C29        C5035   1.488       .  S
O30          C38   1.269       .  A
O30         Co50   1.984       .  S
O31          C39   1.272       .  A
O31         Co51   1.899   1_565  S
O32          C40   1.282       .  A
O32         Co52   2.046       .  S
O33          C41   1.261       .  A
O33         Co53   1.976       .  S
O34          C40   1.271       .  A
O34         Co51   1.987       .  S
O35          C41   1.267       .  A
O35         Co50   1.978   1_565  S
O36          C39   1.301       .  A
O36         Co53   2.134       .  S
O37          C38   1.267       .  A
O37         Co52   1.977       .  S
C38        C4962   1.466       .  S
C39        C4906   1.497       .  S
C40        C4934   1.492       .  S
C41        C4878   1.473       .  S
O42          C55   1.278       .  A
O42         Co50   2.022   1_565  S
O43          C56   1.270       .  A
O43         Co51   2.017       .  S
O44          C57   1.265       .  A
O44         Co52   1.957       .  S
O45          C58   1.272       .  A
O45         Co53   1.880       .  S
O46          C58   1.290       .  A
O46         Co51   2.095   1_565  S
O47          C57   1.273       .  A
O47         Co50   2.010       .  S
O48          C55   1.283       .  A
O48         Co53   2.020       .  S
O49          C56   1.256       .  A
O49         Co52   1.959       .  S
Co50         O54   2.024       .  S
Co51         O54   1.991       .  S
Co52         O54   2.007       .  S
Co53         O54   1.984   1_565  S
C55        C4895   1.509       .  S
C56        C4948   1.465       .  S
C57        C4976   1.476       .  S
C58        C4923   1.464       .  S
O59          C67   1.272       .  A
O59         Co79   1.988       .  S
O60          C68   1.272       .  A
O60         Co80   1.880       .  S
O61          C69   1.278       .  A
O61         Co81   2.032       .  S
O62          C70   1.280       .  A
O62         Co82   2.030   1_545  S
O63          C69   1.275       .  A
O63         Co80   1.988       .  S
O64          C70   1.279       .  A
O64         Co79   2.015       .  S
O65          C68   1.291       .  A
O65         Co82   2.097       .  S
O66          C67   1.271       .  A
O66         Co81   1.979   1_545  S
C67        C4864   1.481       .  S
C68        C4808   1.460       .  S
C69        C4780   1.499       .  S
C70        C4836   1.519       .  S
O71          C84   1.267       .  A
O71         Co79   1.987       .  S
O72          C85   1.269       .  A
O72         Co80   2.002       .  S
O73          C86   1.274       .  A
O73         Co81   1.984   1_545  S
O74          C87   1.278       .  A
O74         Co82   1.918       .  S
O75          C87   1.294       .  A
O75         Co80   2.117       .  S
O76          C86   1.280       .  A
O76         Co79   2.016       .  S
O77          C84   1.280       .  A
O77         Co82   2.011   1_545  S
O78          C85   1.274       .  A
O78         Co81   2.012       .  S
Co79         O83   2.029   1_545  S
Co80         O83   1.967       .  S
Co81         O83   2.028       .  S
Co82         O83   1.978       .  S
C84        C4825   1.492       .  S
C85        C4766   1.506       .  S
C86        C4853   1.484       .  S
C87        C4794   1.499       .  S
O88          C96   1.272       .  A
O88        Co108   1.973   1_455  S
O89          C97   1.272       .  A
O89        Co109   2.009   1_655  S
O90          C98   1.276       .  A
O90        Co110   2.036       .  S
O91          C99   1.285       .  A
O91        Co111   2.085       .  S
O92          C98   1.266       .  A
O92        Co109   1.984       .  S
O93          C99   1.271       .  A
O93        Co108   1.925       .  S
O94          C97   1.271       .  A
O94        Co111   1.985       .  S
O95          C96   1.279       .  A
O95        Co110   2.016       .  S
C96        C4741   1.470       .  S
C97        C4682   1.494       .  S
C98        C4713   1.509       .  S
C99        C4654   1.494       .  S
O100        C113   1.293       .  A
O100       Co108   2.094       .  S
O101        C114   1.281       .  A
O101       Co109   2.038       .  S
O102        C115   1.267       .  A
O102       Co110   2.016       .  S
O103        C116   1.280       .  A
O103       Co111   1.998       .  S
O104        C116   1.270       .  A
O104       Co109   1.998   1_655  S
O105        C115   1.269       .  A
O105       Co108   2.017   1_455  S
O106        C113   1.275       .  A
O106       Co111   1.923       .  S
O107        C114   1.267       .  A
O107       Co110   1.959       .  S
Co108       O112   2.016   1_655  S
Co109       O112   2.048       .  S
Co110       O112   2.035       .  S
Co111       O112   2.008   1_655  S
C113       C4671   1.495       .  S
C114       C4727   1.486       .  S
C115       C4755   1.517       .  S
C116       C4699   1.501       .  S
O117        C125   1.283       .  A
O117       Co137   1.933       .  S
O118        C126   1.274       .  A
O118       Co138   1.990       .  S
O119        C127   1.279       .  A
O119       Co139   2.032       .  S
O120        C128   1.278       .  A
O120       Co140   2.035       .  S
O121        C127   1.268       .  A
O121       Co138   1.992   1_554  S
O122        C128   1.278       .  A
O122       Co137   2.022   1_556  S
O123        C126   1.277       .  A
O123       Co140   2.014       .  S
O124        C125   1.295       .  A
O124       Co139   2.116       .  S
C125       C4626   1.515       .  S
C126       C4573   1.492       .  S
C127       C4598   1.509       .  S
C128       C4542   1.516       .  S
O129        C142   1.289       .  A
O129       Co137   2.057   1_556  S
O130        C143   1.284       .  A
O130       Co138   2.037   1_554  S
O131        C144   1.278       .  A
O131       Co139   1.924       .  S
O132        C145   1.275       .  A
O132       Co140   2.010       .  S
O133        C145   1.267       .  A
O133       Co138   2.000       .  S
O134        C144   1.294       .  A
O134       Co137   2.110       .  S
O135        C142   1.274       .  A
O135       Co140   1.993       .  S
O136        C143   1.279       .  A
O136       Co139   2.007       .  S
Co137       O141   2.002   1_554  S
Co138       O141   2.038       .  S
Co139       O141   2.010   1_554  S
Co140       O141   2.045       .  S
C142       C4559   1.515       .  S
C143       C4612   1.514       .  S
C144       C4640   1.503       .  S
C145       C4584   1.504       .  S
O146        C154   1.281       .  A
O146       Co166   2.013   1_554  S
O147        C155   1.260       .  A
O147       Co167   1.986       .  S
O148        C156   1.277       .  A
O148       Co168   2.015       .  S
O149        C157   1.290       .  A
O149       Co169   2.090       .  S
O150        C156   1.256       .  A
O150       Co167   1.937   1_554  S
O151        C157   1.279       .  A
O151       Co166   1.929       .  S
O152        C155   1.271       .  A
O152       Co169   2.023       .  S
O153        C154   1.273       .  A
O153       Co168   2.010       .  S
C154       C4514   1.515       .  S
C155       C4458   1.500       .  S
C156       C4486   1.458       .  S
C157       C4433   1.495       .  S
O158        C171   1.295       .  A
O158       Co166   2.109       .  S
O159        C172   1.277       .  A
O159       Co167   2.026   1_554  S
O160        C173   1.266       .  A
O160       Co168   1.970       .  S
O161        C174   1.268       .  A
O161       Co169   1.974       .  S
O162        C174   1.277       .  A
O162       Co167   2.027       .  S
O163        C173   1.276       .  A
O163       Co166   2.034   1_554  S
O164        C171   1.269       .  A
O164       Co169   1.871       .  S
O165        C172   1.263       .  A
O165       Co168   1.978       .  S
Co166       O170   2.013   1_556  S
Co167       O170   2.030   1_556  S
Co168       O170   2.025       .  S
Co169       O170   1.980   1_556  S
C171       C4444   1.480       .  S
C172       C4500   1.496       .  S
C173       C4528   1.499       .  S
C174       C4475   1.485       .  S
O175        C183   1.280       .  A
O175       Co195   2.034       .  S
O176        C184   1.279       .  A
O176       Co196   2.024       .  S
O177        C185   1.270       .  A
O177       Co197   1.898   1_565  S
O178        C186   1.268       .  A
O178       Co198   1.988   1_545  S
O179        C185   1.291       .  A
O179       Co196   2.103       .  S
O180        C186   1.272       .  A
O180       Co195   2.009       .  S
O181        C184   1.271       .  A
O181       Co198   1.993       .  S
O182        C183   1.274       .  A
O182       Co197   1.976       .  S
C183       C4402   1.491       .  S
C184       C4318   1.505       .  S
C185       C4346   1.472       .  S
C186       C4374   1.495       .  S
O187        C200   1.261       .  A
O187       Co195   1.969       .  S
O188        C201   1.277       .  A
O188       Co196   1.896       .  S
O189        C202   1.267       .  A
O189       Co197   2.011       .  S
O190        C203   1.272       .  A
O190       Co198   2.003       .  S
O191        C203   1.274       .  A
O191       Co196   1.996       .  S
O192        C202   1.261       .  A
O192       Co195   1.971       .  S
O193        C200   1.281       .  A
O193       Co198   2.040   1_545  S
O194        C201   1.292       .  A
O194       Co197   2.111   1_565  S
Co195       O199   2.015       .  S
Co196       O199   1.993   1_565  S
Co197       O199   1.991       .  S
Co198       O199   2.028   1_565  S
C200       C4388   1.474       .  S
C201       C4360   1.489       .  S
C202       C4416   1.484       .  S
C203       C4332   1.486       .  S
O204        C212   1.269       .  A
O204       Co224   2.024       .  S
O205        C213   1.272       .  A
O205       Co225   2.038       .  S
O206        C214   1.265       .  A
O206       Co226   1.974       .  S
O207        C215   1.262       .  A
O207       Co227   1.961   1_554  S
O208        C214   1.272       .  A
O208       Co225   2.009       .  S
O209        C215   1.275       .  A
O209       Co224   2.021       .  S
O210        C213   1.264       .  A
O210       Co227   1.976       .  S
O211        C212   1.275       .  A
O211       Co226   2.011   1_554  S
C212       C4293   1.516       .  S
C213       C4206   1.498       .  S
C214       C4234   1.464       .  S
C215       C4262   1.473       .  S
O216        C229   1.265       .  A
O216       Co224   1.983       .  S
O217        C230   1.267       .  A
O217       Co225   1.993       .  S
O218        C231   1.265       .  A
O218       Co226   1.990   1_554  S
O219        C232   1.273       .  A
O219       Co227   2.016       .  S
O220        C232   1.266       .  A
O220       Co225   1.976       .  S
O221        C231   1.267       .  A
O221       Co224   1.971       .  S
O222        C229   1.271       .  A
O222       Co227   2.032   1_554  S
O223        C230   1.279       .  A
O223       Co226   2.050       .  S
Co224       O228   2.106   1_554  S
Co225       O228   2.117       .  S
Co226       O228   2.103       .  S
Co227       O228   2.101       .  S
C229       C4279   1.498       .  S
C230       C4251   1.517       .  S
C231       C4307   1.475       .  S
C232       C4220   1.491       .  S
O233        C241   1.277       .  A
O233       Co253   2.018       .  S
O234        C242   1.280       .  A
O234       Co254   2.029       .  S
O235        C243   1.270       .  A
O235       Co255   1.892   1_655  S
O236        C244   1.273       .  A
O236       Co256   2.001       .  S
O237        C243   1.295       .  A
O237       Co254   2.107       .  S
O238        C244   1.281       .  A
O238       Co253   2.032       .  S
O239        C242   1.277       .  A
O239       Co256   2.018   1_655  S
O240        C241   1.279       .  A
O240       Co255   2.011       .  S
C241       C4181   1.506       .  S
C242       C4097   1.522       .  S
C243       C4125   1.487       .  S
C244       C4150   1.514       .  S
O245        C258   1.272       .  A
O245       Co253   1.989       .  S
O246        C259   1.276       .  A
O246       Co254   1.917       .  S
O247        C260   1.267       .  A
O247       Co255   2.007       .  S
O248        C261   1.275       .  A
O248       Co256   2.023   1_655  S
O249        C261   1.278       .  A
O249       Co254   2.008       .  S
O250        C260   1.278       .  A
O250       Co253   2.031       .  S
O251        C258   1.280       .  A
O251       Co256   2.021       .  S
O252        C259   1.303       .  A
O252       Co255   2.137   1_655  S
Co253       O257   2.046       .  S
Co254       O257   1.999   1_655  S
Co255       O257   1.996       .  S
Co256       O257   2.050       .  S
C258       C4167   1.495       .  S
C259       C4136   1.517       .  S
C260       C4195   1.520       .  S
C261       C4108   1.518       .  S
O262        C270   1.275       .  A
O262       Co282   2.009       .  S
O263        C271   1.264       .  A
O263       Co283   1.867       .  S
O264        C272   1.281       .  A
O264       Co284   2.036   1_655  S
O265        C273   1.272       .  A
O265       Co285   2.001   1_455  S
O266        C272   1.271       .  A
O266       Co283   1.982       .  S
O267        C273   1.284       .  A
O267       Co282   2.031       .  S
O268        C271   1.302       .  A
O268       Co285   2.145       .  S
O269        C270   1.268       .  A
O269       Co284   1.998       .  S
C270       C4080   1.503       .  S
C271       C4024   1.473       .  S
C272       C3999   1.492       .  S
C273       C4052   1.515       .  S
O274        C287   1.267       .  A
O274       Co282   1.980       .  S
O275        C288   1.262       .  A
O275       Co283   1.989       .  S
O276        C289   1.266       .  A
O276       Co284   1.963       .  S
O277        C290   1.277       .  A
O277       Co285   1.931       .  S
O278        C290   1.298       .  A
O278       Co283   2.123       .  S
O279        C289   1.287       .  A
O279       Co282   2.059       .  S
O280        C287   1.285       .  A
O280       Co285   2.027   1_455  S
O281        C288   1.261       .  A
O281       Co284   1.987   1_655  S
Co282       O286   2.034       .  S
Co283       O286   1.989   1_655  S
Co284       O286   2.038       .  S
Co285       O286   2.000   1_655  S
C287       C4038   1.506       .  S
C288       C3982   1.487       .  S
C289       C4069   1.494       .  S
C290       C4013   1.520       .  S
O291        C299   1.265       .  A
O291       Co311   1.966       .  S
O292        C300   1.276       .  A
O292       Co312   1.987   1_556  S
O293        C301   1.288       .  A
O293       Co313   2.086       .  S
O294        C302   1.275       .  A
O294       Co314   2.014       .  S
O295        C301   1.277       .  A
O295       Co312   1.932       .  S
O296        C302   1.268       .  A
O296       Co311   1.986   1_556  S
O297        C300   1.274       .  A
O297       Co314   2.001       .  S
O298        C299   1.280       .  A
O298       Co313   2.040       .  S
C299       C3954   1.499       .  S
C300       C3898   1.480       .  S
C301       C3926   1.503       .  S
C302       C3870   1.496       .  S
O303        C316   1.274       .  A
O303       Co311   2.011   1_556  S
O304        C317   1.295       .  A
O304       Co312   2.121       .  S
O305        C318   1.273       .  A
O305       Co313   1.979       .  S
O306        C319   1.269       .  A
O306       Co314   1.979       .  S
O307        C319   1.275       .  A
O307       Co312   2.010   1_556  S
O308        C318   1.275       .  A
O308       Co311   2.005       .  S
O309        C316   1.273       .  A
O309       Co314   1.986       .  S
O310        C317   1.279       .  A
O310       Co313   1.932       .  S
Co311       O315   2.015   1_554  S
Co312       O315   2.004   1_554  S
Co313       O315   2.005   1_554  S
Co314       O315   2.022       .  S
C316       C3884   1.493       .  S
C317       C3940   1.521       .  S
C318       C3968   1.474       .  S
C319       C3912   1.484       .  S
O320        C328   1.252       .  A
O320       Co340   1.961       .  S
O321        C329   1.258       .  A
O321       Co341   1.972       .  S
O322        C330   1.265       .  A
O322       Co342   2.018       .  S
O323        C331   1.267       .  A
O323       Co343   1.993       .  S
O324        C330   1.259       .  A
O324       Co341   1.980       .  S
O325        C331   1.278       .  A
O325       Co340   2.019       .  S
O326        C329   1.267       .  A
O326       Co343   2.028       .  S
O327        C328   1.260       .  A
O327       Co342   1.993       .  S
C328       C3828   1.455       .  S
C329       C3842   1.490       .  S
C330       C3814   1.489       .  S
C331       C3856   1.510       .  S
O332        C345   1.262       .  A
O332       Co340   2.004       .  S
O333        C346   1.293       .  A
O333       Co341   2.092       .  S
O334        C347   1.279       .  A
O334       Co342   1.991       .  S
O335        C348   1.268       .  A
O335       Co343   1.963       .  S
O336        C348   1.272       .  A
O336       Co341   2.005       .  S
O337        C347   1.285       .  A
O337       Co340   1.964       .  S
O338        C345   1.265       .  A
O338       Co343   2.021       .  S
O339        C346   1.259       .  A
O339       Co342   1.949       .  S
Co340       O344   1.985       .  S
Co341       O344   2.075       .  S
Co342       O344   2.075       .  S
Co343       O344   2.091       .  S
C345       C3800   1.518       .  S
C346       C4010   1.512       .  S
C347       C4657   1.462       .  S
C348       C3786   1.484       .  S
O349        C357   1.274       .  A
O349       Co369   2.041       .  S
O350        C358   1.277       .  A
O350       Co370   2.052       .  S
O351        C359   1.264       .  A
O351       Co371   1.978       .  S
O352        C360   1.253       .  A
O352       Co372   1.961       .  S
O353        C359   1.269       .  A
O353       Co370   2.020       .  S
O354        C360   1.267       .  A
O354       Co369   2.023       .  S
O355        C358   1.257       .  A
O355       Co372   1.977       .  S
O356        C357   1.262       .  A
O356       Co371   1.965       .  S
C357       C4570   1.488       .  S
C358       C3733   1.496       .  S
C359       C4209   1.495       .  S
C360       C3716   1.487       .  S
O361        C374   1.246       .  A
O361       Co369   1.921       .  S
O362        C375   1.254       .  A
O362       Co370   1.959       .  S
O363        C376   1.269       .  A
O363       Co371   2.055       .  S
O364        C377   1.272       .  A
O364       Co372   2.069       .  S
O365        C377   1.250       .  A
O365       Co370   1.938       .  S
O366        C376   1.245       .  A
O366       Co369   1.933       .  S
O367        C374   1.282       .  A
O367       Co372   2.099       .  S
O368        C375   1.271       .  A
O368       Co371   2.034       .  S
Co369       O373   2.086       .  S
Co370       O373   2.091       .  S
Co371       O373   2.139       .  S
Co372       O373   2.136       .  S
C374       C3772   1.503       .  S
C375       C3744   1.467       .  S
C376       C3758   1.485       .  S
C377       C3845   1.493       .  S
O378        C386   1.265       .  A
O378       Co398   1.890       .  S
O379        C387   1.246       .  A
O379       Co399   1.941       .  S
O380        C388   1.268       .  A
O380       Co400   2.010       .  S
O381        C389   1.275       .  A
O381       Co401   2.024       .  S
O382        C388   1.255       .  A
O382       Co399   1.977       .  S
O383        C389   1.273       .  A
O383       Co398   1.986       .  S
O384        C387   1.277       .  A
O384       Co401   2.072       .  S
O385        C386   1.290       .  A
O385       Co400   2.096       .  S
C386       C3691   1.470       .  S
C387       C3859   1.490       .  S
C388       C3677   1.483       .  S
C389       C3775   1.497       .  S
O390        C403   1.262       .  A
O390       Co398   2.003       .  S
O391        C404   1.279       .  A
O391       Co399   2.030       .  S
O392        C405   1.269       .  A
O392       Co400   1.893       .  S
O393        C406   1.261       .  A
O393       Co401   1.947       .  S
O394        C406   1.278       .  A
O394       Co399   2.043       .  S
O395        C405   1.306       .  A
O395       Co398   2.127       .  S
O396        C403   1.265       .  A
O396       Co401   2.003       .  S
O397        C404   1.272       .  A
O397       Co400   1.981       .  S
Co398       O402   1.995       .  S
Co399       O402   2.017       .  S
Co400       O402   2.011       .  S
Co401       O402   2.060       .  S
C403       C3646   1.496       .  S
C404       C3705   1.498       .  S
C405       C4405   1.494       .  S
C406       C3660   1.470       .  S
O407        C415   1.254       .  A
O407       Co427   1.984       .  S
O408        C416   1.262       .  A
O408       Co428   1.974       .  S
O409        C417   1.286       .  A
O409       Co429   2.052       .  S
O410        C418   1.274       .  A
O410       Co430   2.053       .  S
O411        C417   1.270       .  A
O411       Co428   1.924       .  S
O412        C418   1.255       .  A
O412       Co427   1.963       .  S
O413        C416   1.273       .  A
O413       Co430   2.046       .  S
O414        C415   1.237       .  A
O414       Co429   1.932       .  S
C415       C3831   1.443       .  S
C416       C3618   1.509       .  S
C417       C3674   1.470       .  S
C418       C3632   1.495       .  S
O419        C432   1.258       .  A
O419       Co427   1.981       .  S
O420        C433   1.269       .  A
O420       Co428   2.058       .  S
O421        C434   1.270       .  A
O421       Co429   1.987       .  S
O422        C435   1.257       .  A
O422       Co430   1.952       .  S
O423        C435   1.274       .  A
O423       Co428   2.025       .  S
O424        C434   1.273       .  A
O424       Co427   2.013       .  S
O425        C432   1.262       .  A
O425       Co430   1.998       .  S
O426        C433   1.245       .  A
O426       Co429   1.955       .  S
Co427       O431   2.113       .  S
Co428       O431   2.027       .  S
Co429       O431   2.047       .  S
Co430       O431   2.097       .  S
C432       C3579   1.484       .  S
C433       C3604   1.509       .  S
C434       C4668   1.497       .  S
C435       C3593   1.490       .  S
O436        C444   1.278       .  A
O436       Co456   2.015       .  S
O437        C445   1.262       .  A
O437       Co457   2.000       .  S
O438        C446   1.273       .  A
O438       Co458   1.901       .  S
O439        C447   1.264       .  A
O439       Co459   1.966       .  S
O440        C446   1.299       .  A
O440       Co457   2.117       .  S
O441        C447   1.277       .  A
O441       Co456   2.013       .  S
O442        C445   1.256       .  A
O442       Co459   1.971       .  S
O443        C444   1.275       .  A
O443       Co458   1.989       .  S
C444       C4587   1.503       .  S
C445       C3551   1.481       .  S
C446       C4419   1.483       .  S
C447       C3534   1.471       .  S
O448        C461   1.261       .  A
O448       Co456   1.958       .  S
O449        C462   1.266       .  A
O449       Co457   1.867       .  S
O450        C463   1.269       .  A
O450       Co458   2.013       .  S
O451        C464   1.287       .  A
O451       Co459   2.063       .  S
O452        C464   1.269       .  A
O452       Co457   1.975       .  S
O453        C463   1.261       .  A
O453       Co456   1.975       .  S
O454        C461   1.269       .  A
O454       Co459   2.027       .  S
O455        C462   1.290       .  A
O455       Co458   2.105       .  S
Co456       O460   1.996       .  S
Co457       O460   1.979       .  S
Co458       O460   2.012       .  S
Co459       O460   2.040       .  S
C461       C3565   1.482       .  S
C462       C3688   1.469       .  S
C463       C3761   1.468       .  S
C464       C3621   1.512       .  S
O465        C473   1.300       .  A
O465       Co485   2.072       .  S
O466        C474   1.265       .  A
O466       Co486   2.032       .  S
O467        C475   1.260       .  A
O467       Co487   2.006       .  S
O468        C476   1.278       .  A
O468       Co488   1.908       .  S
O469        C475   1.267       .  A
O469       Co486   1.997       .  S
O470        C476   1.298       .  A
O470       Co485   2.064       .  S
O471        C474   1.259       .  A
O471       Co488   2.004       .  S
O472        C473   1.263       .  A
O472       Co487   1.873       .  S
C473       C3747   1.466       .  S
C474       C3635   1.502       .  S
C475       C3817   1.489       .  S
C476       C3562   1.474       .  S
O477        C490   1.253       .  A
O477       Co485   1.989       .  S
O478        C491   1.261       .  A
O478       Co486   1.976       .  S
O479        C492   1.250       .  A
O479       Co487   1.991       .  S
O480        C493   1.276       .  A
O480       Co488   2.042       .  S
O481        C493   1.259       .  A
O481       Co486   1.946       .  S
O482        C492   1.254       .  A
O482       Co485   1.984       .  S
O483        C490   1.254       .  A
O483       Co488   1.995       .  S
O484        C491   1.260       .  A
O484       Co487   1.984       .  S
Co485       O489   2.230       .  S
Co486       O489   2.077       .  S
Co487       O489   1.936       .  S
Co488       O489   1.956       .  S
C490       C3506   1.491       .  S
C491       C4027   1.475       .  S
C492       C4223   1.496       .  S
C493       C3520   1.478       .  S
O494        C502   1.253       .  A
O494       Co514   1.963       .  S
O495        C503   1.264       .  A
O495       Co515   1.981       .  S
O496        C504   1.294       .  A
O496       Co516   2.086       .  S
O497        C505   1.277       .  A
O497       Co517   2.061       .  S
O498        C504   1.277       .  A
O498       Co515   1.908       .  S
O499        C505   1.251       .  A
O499       Co514   1.945       .  S
O500        C503   1.276       .  A
O500       Co517   2.047       .  S
O501        C502   1.243       .  A
O501       Co516   1.921       .  S
C502       C3464   1.435       .  S
C503       C3492   1.516       .  S
C504       C3450   1.495       .  S
C505       C3481   1.493       .  S
O506        C519   1.262       .  A
O506       Co514   2.005       .  S
O507        C520   1.270       .  A
O507       Co515   2.073       .  S
O508        C521   1.256       .  A
O508       Co516   1.955       .  S
O509        C522   1.262       .  A
O509       Co517   1.953       .  S
O510        C522   1.282       .  A
O510       Co515   2.051       .  S
O511        C521   1.274       .  A
O511       Co514   2.018       .  S
O512        C519   1.263       .  A
O512       Co517   2.002       .  S
O513        C520   1.238       .  A
O513       Co516   1.920       .  S
Co514       O518   2.103       .  S
Co515       O518   2.028       .  S
Co516       O518   2.048       .  S
Co517       O518   2.082       .  S
C519       C3439   1.507       .  S
C520       C4377   1.494       .  S
C521       C4822   1.486       .  S
C522       C3649   1.496       .  S
O523        C531   1.278       .  A
O523       Co543   2.087       .  S
O524        C532   1.269       .  A
O524       Co544   2.005       .  S
O525        C533   1.259       .  A
O525       Co545   1.954       .  S
O526        C534   1.263       .  A
O526       Co546   1.985       .  S
O527        C533   1.286       .  A
O527       Co544   2.049       .  S
O528        C534   1.269       .  A
O528       Co543   1.998       .  S
O529        C532   1.265       .  A
O529       Co546   1.957       .  S
O530        C531   1.231       .  A
O530       Co545   1.886       .  S
C531       C4738   1.486       .  S
C532       C3366   1.471       .  S
C533       C4041   1.498       .  S
C534       C3380   1.489       .  S
O535        C548   1.275       .  A
O535       Co543   2.002       .  S
O536        C549   1.261       .  A
O536       Co544   1.997       .  S
O537        C550   1.299       .  A
O537       Co545   2.085       .  S
O538        C551   1.271       .  A
O538       Co546   2.054       .  S
O539        C551   1.251       .  A
O539       Co544   1.952       .  S
O540        C550   1.271       .  A
O540       Co543   1.876       .  S
O541        C548   1.274       .  A
O541       Co546   2.027       .  S
O542        C549   1.240       .  A
O542       Co545   1.944       .  S
Co543       O547   1.966       .  S
Co544       O547   2.055       .  S
Co545       O547   2.040       .  S
Co546       O547   2.073       .  S
C548       C3478   1.501       .  S
C549       C3394   1.471       .  S
C550       C3408   1.472       .  S
C551       C3422   1.484       .  S
O552        C560   1.254       .  A
O552       Co572   1.942       .  S
O553        C561   1.255       .  A
O553       Co573   1.952       .  S
O554        C562   1.270       .  A
O554       Co574   2.028       .  S
O555        C563   1.281       .  A
O555       Co575   2.085       .  S
O556        C562   1.256       .  A
O556       Co573   1.950       .  S
O557        C563   1.255       .  A
O557       Co572   1.951       .  S
O558        C561   1.272       .  A
O558       Co575   2.048       .  S
O559        C560   1.264       .  A
O559       Co574   2.008       .  S
C560       C3341   1.453       .  S
C561       C3425   1.484       .  S
C562       C3355   1.472       .  S
C563       C3495   1.515       .  S
O564        C577   1.266       .  A
O564       Co572   2.015       .  S
O565        C578   1.272       .  A
O565       Co573   2.022       .  S
O566        C579   1.277       .  A
O566       Co574   2.011       .  S
O567        C580   1.269       .  A
O567       Co575   1.992       .  S
O568        C580   1.268       .  A
O568       Co573   2.023       .  S
O569        C579   1.277       .  A
O569       Co572   2.046       .  S
O570        C577   1.261       .  A
O570       Co575   1.971       .  S
O571        C578   1.271       .  A
O571       Co574   1.982       .  S
Co572       O576   2.095       .  S
Co573       O576   2.100       .  S
Co574       O576   2.153       .  S
Co575       O576   2.131       .  S
C577       C3719   1.488       .  S
C578       C4461   1.494       .  S
C579       C4545   1.526       .  S
C580       C3324   1.498       .  S
O581        C589   1.295       .  A
O581       Co601   2.094       .  S
O582        C590   1.277       .  A
O582       Co602   2.043       .  S
O583        C591   1.277       .  A
O583       Co603   1.992       .  S
O584        C592   1.257       .  A
O584       Co604   1.993       .  S
O585        C591   1.283       .  A
O585       Co602   2.041       .  S
O586        C592   1.266       .  A
O586       Co601   2.016       .  S
O587        C590   1.256       .  A
O587       Co604   1.935       .  S
O588        C589   1.269       .  A
O588       Co603   1.898       .  S
C589       C4472   1.493       .  S
C590       C3523   1.474       .  S
C591       C4055   1.515       .  S
C592       C3282   1.493       .  S
O593        C606   1.264       .  A
O593       Co601   1.970       .  S
O594        C607   1.252       .  A
O594       Co602   1.966       .  S
O595        C608   1.293       .  A
O595       Co603   2.107       .  S
O596        C609   1.277       .  A
O596       Co604   2.065       .  S
O597        C609   1.252       .  A
O597       Co602   1.954       .  S
O598        C608   1.262       .  A
O598       Co601   1.902       .  S
O599        C606   1.276       .  A
O599       Co604   2.027       .  S
O600        C607   1.260       .  A
O600       Co603   2.009       .  S
Co601       O605   2.015       .  S
Co602       O605   2.026       .  S
Co603       O605   2.037       .  S
Co604       O605   2.061       .  S
C606       C3296   1.493       .  S
C607       C3397   1.462       .  S
C608       C3352   1.469       .  S
C609       C3313   1.504       .  S
O610        C618   1.246       .  A
O610       Co630   1.937       .  S
O611        C619   1.261       .  A
O611       Co631   1.957       .  S
O612        C620   1.264       .  A
O612       Co632   2.016       .  S
O613        C621   1.274       .  A
O613       Co633   2.091       .  S
O614        C620   1.259       .  A
O614       Co631   1.959       .  S
O615        C621   1.244       .  A
O615       Co630   1.926       .  S
O616        C619   1.276       .  A
O616       Co633   2.069       .  S
O617        C618   1.270       .  A
O617       Co632   2.020       .  S
C618       C3467   1.453       .  S
C619       C3310   1.505       .  S
C620       C3411   1.479       .  S
C621       C3268   1.507       .  S
O622        C635   1.275       .  A
O622       Co630   2.049       .  S
O623        C636   1.276       .  A
O623       Co631   2.037       .  S
O624        C637   1.272       .  A
O624       Co632   1.993       .  S
O625        C638   1.257       .  A
O625       Co633   1.964       .  S
O626        C638   1.267       .  A
O626       Co631   2.017       .  S
O627        C637   1.274       .  A
O627       Co630   2.036       .  S
O628        C635   1.257       .  A
O628       Co633   1.967       .  S
O629        C636   1.274       .  A
O629       Co632   1.988       .  S
Co630       O634   2.080       .  S
Co631       O634   2.099       .  S
Co632       O634   2.149       .  S
Co633       O634   2.140       .  S
C635       C3254   1.501       .  S
C636       C4752   1.513       .  S
C637       C4839   1.516       .  S
C638       C3576   1.486       .  S
O639        C647   1.276       .  A
O639       Co659   1.862       .  S
O640        C648   1.261       .  A
O640       Co660   1.995       .  S
O641        C649   1.299       .  A
O641       Co661   2.098       .  S
O642        C650   1.274       .  A
O642       Co662   2.032       .  S
O643        C649   1.270       .  A
O643       Co660   1.919       .  S
O644        C650   1.262       .  A
O644       Co659   1.953       .  S
O645        C648   1.265       .  A
O645       Co662   2.026       .  S
O646        C647   1.311       .  A
O646       Co661   2.104       .  S
C647       C3338   1.475       .  S
C648       C3271   1.508       .  S
C649       C3453   1.505       .  S
C650       C3299   1.489       .  S
O651        C664   1.281       .  A
O651       Co659   2.034       .  S
O652        C665   1.296       .  A
O652       Co660   2.065       .  S
O653        C666   1.264       .  A
O653       Co661   2.008       .  S
O654        C667   1.265       .  A
O654       Co662   1.962       .  S
O655        C667   1.276       .  A
O655       Co660   2.013       .  S
O656        C666   1.257       .  A
O656       Co659   2.002       .  S
O657        C664   1.265       .  A
O657       Co662   1.964       .  S
O658        C665   1.282       .  A
O658       Co661   1.918       .  S
Co659       O663   1.897       .  S
Co660       O663   1.975       .  S
Co661       O663   2.056       .  S
Co662       O663   2.045       .  S
C664       C3226   1.486       .  S
C665       C4391   1.477       .  S
C666       C4556   1.512       .  S
C667       C3243   1.463       .  S
O668        C676   1.308       .  A
O668       Co688   2.014       .  S
O669        C677   1.272       .  A
O669       Co689   2.012       .  S
O670        C678   1.279       .  A
O670       Co690   1.993       .  S
O671        C679   1.268       .  A
O671       Co691   2.025       .  S
O672        C678   1.271       .  A
O672       Co689   1.997       .  S
O673        C679   1.262       .  A
O673       Co688   1.980       .  S
O674        C677   1.264       .  A
O674       Co691   1.954       .  S
O675        C676   1.292       .  A
O675       Co690   1.955       .  S
C676       C4349   1.478       .  S
C677       C3142   1.473       .  S
C678       C3184   1.500       .  S
C679       C3128   1.516       .  S
O680        C693   1.281       .  A
O680       Co688   2.020       .  S
O681        C694   1.258       .  A
O681       Co689   1.957       .  S
O682        C695   1.245       .  A
O682       Co690   2.048       .  S
O683        C696   1.277       .  A
O683       Co691   2.061       .  S
O684        C696   1.257       .  A
O684       Co689   1.942       .  S
O685        C695   1.224       .  A
O685       Co688   1.952       .  S
O686        C693   1.262       .  A
O686       Co691   1.947       .  S
O687        C694   1.275       .  A
O687       Co690   2.030       .  S
Co688       O692   1.996       .  S
Co689       O692   2.003       .  S
Co690       O692   2.081       .  S
Co691       O692   2.065       .  S
C693       C3198   1.463       .  S
C694       C3170   1.481       .  S
C695       C3156   1.468       .  S
C696       C3215   1.498       .  S
O697        C705   1.307       .  A
O697       Co717   2.142       .  S
O698        C706   1.280       .  A
O698       Co718   2.033       .  S
O699        C707   1.272       .  A
O699       Co719   1.993       .  S
O700        C708   1.255       .  A
O700       Co720   1.982       .  S
O701        C707   1.272       .  A
O701       Co718   1.984       .  S
O702        C708   1.255       .  A
O702       Co717   1.973       .  S
O703        C706   1.259       .  A
O703       Co720   1.945       .  S
O704        C705   1.259       .  A
O704       Co719   1.850       .  S
C705       C4122   1.488       .  S
C706       C3789   1.485       .  S
C707       C3985   1.491       .  S
C708       C3072   1.475       .  S
O709        C722   1.269       .  A
O709       Co717   1.965       .  S
O710        C723   1.259       .  A
O710       Co718   1.975       .  S
O711        C724   1.299       .  A
O711       Co719   2.135       .  S
O712        C725   1.273       .  A
O712       Co720   2.054       .  S
O713        C725   1.250       .  A
O713       Co718   1.944       .  S
O714        C724   1.259       .  A
O714       Co717   1.889       .  S
O715        C722   1.279       .  A
O715       Co720   2.032       .  S
O716        C723   1.254       .  A
O716       Co719   1.974       .  S
Co717       O721   2.000       .  S
Co718       O721   2.008       .  S
Co719       O721   1.998       .  S
Co720       O721   2.049       .  S
C722       C3212   1.492       .  S
C723       C3086   1.467       .  S
C724       C3100   1.480       .  S
C725       C3114   1.480       .  S
O726        C734   1.282       .  A
O726       Co746   1.926       .  S
O727        C735   1.269       .  A
O727       Co747   2.000       .  S
O728        C736   1.273       .  A
O728       Co748   1.918       .  S
O729        C737   1.253       .  A
O729       Co749   2.001       .  S
O730        C736   1.292       .  A
O730       Co747   2.073       .  S
O731        C737   1.253       .  A
O731       Co746   2.003       .  S
O732        C735   1.267       .  A
O732       Co749   1.976       .  S
O733        C734   1.289       .  A
O733       Co748   2.049       .  S
C734       C4237   1.465       .  S
C735       C3030   1.488       .  S
C736       C3873   1.490       .  S
C737       C3730   1.495       .  S
O738        C751   1.291       .  A
O738       Co746   2.042       .  S
O739        C752   1.250       .  A
O739       Co747   1.931       .  S
O740        C753   1.303       .  A
O740       Co748   2.138       .  S
O741        C754   1.261       .  A
O741       Co749   2.033       .  S
O742        C754   1.247       .  A
O742       Co747   1.929       .  S
O743        C753   1.248       .  A
O743       Co746   1.935       .  S
O744        C751   1.272       .  A
O744       Co749   1.969       .  S
O745        C752   1.280       .  A
O745       Co748   2.059       .  S
Co746       O750   1.927       .  S
Co747       O750   2.081       .  S
Co748       O750   2.016       .  S
Co749       O750   2.102       .  S
C751       C3117   1.502       .  S
C752       C3058   1.474       .  S
C753       C3044   1.495       .  S
C754       C3201   1.475       .  S
O755        C763   1.278       .  A
O755       Co775   2.033       .  S
O756        C764   1.259       .  A
O756       Co776   1.974       .  S
O757        C765   1.266       .  A
O757       Co777   1.873       .  S
O758        C766   1.263       .  A
O758       Co778   1.965       .  S
O759        C765   1.304       .  A
O759       Co776   2.136       .  S
O760        C766   1.277       .  A
O760       Co775   2.032       .  S
O761        C764   1.269       .  A
O761       Co778   2.010       .  S
O762        C763   1.277       .  A
O762       Co777   1.993       .  S
C763       C4139   1.500       .  S
C764       C3590   1.492       .  S
C765       C2988   1.499       .  S
C766       C2974   1.492       .  S
O767        C780   1.249       .  A
O767       Co775   1.937       .  S
O768        C781   1.263       .  A
O768       Co776   1.896       .  S
O769        C782   1.262       .  A
O769       Co777   2.009       .  S
O770        C783   1.273       .  A
O770       Co778   2.025       .  S
O771        C783   1.273       .  A
O771       Co776   1.993       .  S
O772        C782   1.251       .  A
O772       Co775   1.968       .  S
O773        C780   1.282       .  A
O773       Co778   2.088       .  S
O774        C781   1.297       .  A
O774       Co777   2.113       .  S
Co775       O779   2.022       .  S
Co776       O779   2.010       .  S
Co777       O779   2.018       .  S
Co778       O779   2.075       .  S
C780       C3002   1.511       .  S
C781       C3173   1.468       .  S
C782       C3103   1.486       .  S
C783       C3016   1.488       .  S
O784        C792   1.274       .  A
O784       Co804   2.005       .  S
O785        C793   1.257       .  A
O785       Co805   1.996       .  S
O786        C794   1.273       .  A
O786       Co806   1.897       .  S
O787        C795   1.259       .  A
O787       Co807   1.953       .  S
O788        C794   1.303       .  A
O788       Co805   2.120       .  S
O789        C795   1.281       .  A
O789       Co804   2.048       .  S
O790        C793   1.258       .  A
O790       Co807   1.979       .  S
O791        C792   1.280       .  A
O791       Co806   2.012       .  S
C792       C4248   1.513       .  S
C793       C2946   1.479       .  S
C794       C3996   1.504       .  S
C795       C2932   1.475       .  S
O796        C809   1.245       .  A
O796       Co804   1.935       .  S
O797        C810   1.261       .  A
O797       Co805   1.865       .  S
O798        C811   1.268       .  A
O798       Co806   2.028       .  S
O799        C812   1.279       .  A
O799       Co807   2.048       .  S
O800        C812   1.270       .  A
O800       Co805   1.987       .  S
O801        C811   1.258       .  A
O801       Co804   1.969       .  S
O802        C809   1.272       .  A
O802       Co807   2.055       .  S
O803        C810   1.297       .  A
O803       Co806   2.119       .  S
Co804       O808   1.998       .  S
Co805       O808   1.988       .  S
Co806       O808   2.026       .  S
Co807       O808   2.071       .  S
C809       C2960   1.479       .  S
C810       C3089   1.470       .  S
C811       C3047   1.498       .  S
C812       C3005   1.508       .  S
O813        C821   1.284       .  A
O813       Co833   2.050       .  S
O814        C822   1.275       .  A
O814       Co834   2.020       .  S
O815        C823   1.237       .  A
O815       Co835   1.924       .  S
O816        C824   1.261       .  A
O816       Co836   1.951       .  S
O817        C823   1.271       .  A
O817       Co834   2.061       .  S
O818        C824   1.269       .  A
O818       Co833   2.018       .  S
O819        C822   1.264       .  A
O819       Co836   1.987       .  S
O820        C821   1.258       .  A
O820       Co835   1.936       .  S
C821       C4363   1.485       .  S
C822       C2918   1.496       .  S
C823       C3887   1.489       .  S
C824       C3548   1.483       .  S
O825        C838   1.247       .  A
O825       Co833   1.949       .  S
O826        C839   1.273       .  A
O826       Co834   1.890       .  S
O827        C840   1.246       .  A
O827       Co835   1.970       .  S
O828        C841   1.270       .  A
O828       Co836   2.023       .  S
O829        C841   1.266       .  A
O829       Co834   1.969       .  S
O830        C840   1.254       .  A
O830       Co833   1.982       .  S
O831        C838   1.275       .  A
O831       Co836   2.061       .  S
O832        C839   1.297       .  A
O832       Co835   2.070       .  S
Co833       O837   2.067       .  S
Co834       O837   1.974       .  S
Co835       O837   2.053       .  S
Co836       O837   2.075       .  S
C838       C3019   1.492       .  S
C839       C3061   1.472       .  S
C840       C3159   1.473       .  S
C841       C2963   1.480       .  S
O842        C850   1.280       .  A
O842       Co862   2.050       .  S
O843        C851   1.286       .  A
O843       Co863   2.082       .  S
O844        C852   1.268       .  A
O844       Co864   1.998       .  S
O845        C853   1.264       .  A
O845       Co865   1.992       .  S
O846        C852   1.265       .  A
O846       Co863   2.012       .  S
O847        C853   1.269       .  A
O847       Co862   2.046       .  S
O848        C851   1.256       .  A
O848       Co865   1.950       .  S
O849        C850   1.255       .  A
O849       Co864   1.943       .  S
C850       C4797   1.485       .  S
C851       C3131   1.500       .  S
C852       C4321   1.508       .  S
C853       C2848   1.519       .  S
O854        C867   1.254       .  A
O854       Co862   1.957       .  S
O855        C868   1.268       .  A
O855       Co863   1.996       .  S
O856        C869   1.272       .  A
O856       Co864   2.070       .  S
O857        C870   1.274       .  A
O857       Co865   2.071       .  S
O858        C870   1.248       .  A
O858       Co863   1.944       .  S
O859        C869   1.247       .  A
O859       Co862   1.947       .  S
O860        C867   1.274       .  A
O860       Co865   2.060       .  S
O861        C868   1.266       .  A
O861       Co864   2.009       .  S
Co862       O866   2.103       .  S
Co863       O866   2.107       .  S
Co864       O866   2.139       .  S
Co865       O866   2.141       .  S
C867       C2890   1.495       .  S
C868       C2876   1.501       .  S
C869       C2862   1.481       .  S
C870       C2904   1.492       .  S
O871        C879   1.264       .  A
O871       Co891   1.957       .  S
O872        C880   1.254       .  A
O872       Co892   1.965       .  S
O873        C881   1.242       .  A
O873       Co893   2.039       .  S
O874        C882   1.282       .  A
O874       Co894   2.070       .  S
O875        C881   1.224       .  A
O875       Co892   1.927       .  S
O876        C882   1.256       .  A
O876       Co891   1.932       .  S
O877        C880   1.272       .  A
O877       Co894   2.059       .  S
O878        C879   1.277       .  A
O878       Co893   2.043       .  S
C879       C2820   1.484       .  S
C880       C2907   1.500       .  S
C881       C2806   1.450       .  S
C882       C2834   1.494       .  S
O883        C896   1.270       .  A
O883       Co891   2.031       .  S
O884        C897   1.325       .  A
O884       Co892   2.188       .  S
O885        C898   1.272       .  A
O885       Co893   1.978       .  S
O886        C899   1.259       .  A
O886       Co894   1.983       .  S
O887        C899   1.262       .  A
O887       Co892   1.980       .  S
O888        C898   1.277       .  A
O888       Co891   2.019       .  S
O889        C896   1.251       .  A
O889       Co894   1.959       .  S
O890        C897   1.279       .  A
O890       Co893   1.849       .  S
Co891       O895   2.046       .  S
Co892       O895   2.073       .  S
Co893       O895   2.020       .  S
Co894       O895   2.104       .  S
C896       C3327   1.492       .  S
C897       C3901   1.494       .  S
C898       C4430   1.507       .  S
C899       C3033   1.488       .  S
O900        C908   1.248       .  A
O900       Co920   1.949       .  S
O901        C909   1.264       .  A
O901       Co921   1.956       .  S
O902        C910   1.294       .  A
O902       Co922   2.115       .  S
O903        C911   1.273       .  A
O903       Co923   2.055       .  S
O904        C910   1.263       .  A
O904       Co921   1.897       .  S
O905        C911   1.257       .  A
O905       Co920   1.961       .  S
O906        C909   1.282       .  A
O906       Co923   2.045       .  S
O907        C908   1.265       .  A
O907       Co922   2.006       .  S
C908       C2792   1.457       .  S
C909       C2837   1.492       .  S
C910       C2778   1.483       .  S
C911       C2893   1.493       .  S
O912        C925   1.275       .  A
O912       Co920   2.002       .  S
O913        C926   1.300       .  A
O913       Co921   2.121       .  S
O914        C927   1.275       .  A
O914       Co922   1.986       .  S
O915        C928   1.256       .  A
O915       Co923   1.973       .  S
O916        C928   1.260       .  A
O916       Co921   1.988       .  S
O917        C927   1.282       .  A
O917       Co920   2.045       .  S
O918        C925   1.262       .  A
O918       Co923   1.962       .  S
O919        C926   1.271       .  A
O919       Co922   1.896       .  S
Co920       O924   1.998       .  S
Co921       O924   2.000       .  S
Co922       O924   2.021       .  S
Co923       O924   2.053       .  S
C925       C2764   1.478       .  S
C926       C4066   1.502       .  S
C927       C4178   1.504       .  S
C928       C3369   1.469       .  S
O929        C937   1.317       .  A
O929       Co949   2.158       .  S
O930        C938   1.266       .  A
O930       Co950   2.018       .  S
O931        C939   1.277       .  A
O931       Co951   1.993       .  S
O932        C940   1.267       .  A
O932       Co952   1.997       .  S
O933        C939   1.282       .  A
O933       Co950   2.049       .  S
O934        C940   1.264       .  A
O934       Co949   2.000       .  S
O935        C938   1.261       .  A
O935       Co952   1.973       .  S
O936        C937   1.278       .  A
O936       Co951   1.837       .  S
C937       C4811   1.474       .  S
C938       C2977   1.495       .  S
C939       C4192   1.520       .  S
C940       C3257   1.499       .  S
O941        C954   1.246       .  A
O941       Co949   1.937       .  S
O942        C955   1.265       .  A
O942       Co950   1.960       .  S
O943        C956   1.252       .  A
O943       Co951   2.090       .  S
O944        C957   1.281       .  A
O944       Co952   2.049       .  S
O945        C957   1.264       .  A
O945       Co950   1.958       .  S
O946        C956   1.225       .  A
O946       Co949   1.946       .  S
O947        C954   1.268       .  A
O947       Co952   2.043       .  S
O948        C955   1.269       .  A
O948       Co951   2.006       .  S
Co949       O953   2.071       .  S
Co950       O953   2.055       .  S
Co951       O953   2.005       .  S
Co952       O953   2.094       .  S
C954       C2750   1.468       .  S
C955       C2795   1.458       .  S
C956       C2865   1.486       .  S
C957       C2736   1.485       .  S
O958        C966   1.262       .  A
O958       Co978   1.880       .  S
O959        C967   1.258       .  A
O959       Co979   1.950       .  S
O960        C968   1.257       .  A
O960       Co980   1.988       .  S
O961        C969   1.281       .  A
O961       Co981   2.042       .  S
O962        C968   1.257       .  A
O962       Co979   1.988       .  S
O963        C969   1.265       .  A
O963       Co978   1.972       .  S
O964        C967   1.274       .  A
O964       Co981   2.046       .  S
O965        C966   1.300       .  A
O965       Co980   2.125       .  S
C966       C2823   1.483       .  S
C967       C2739   1.485       .  S
C968       C2781   1.485       .  S
C969       C2725   1.500       .  S
O970        C983   1.264       .  A
O970       Co978   2.019       .  S
O971        C984   1.283       .  A
O971       Co979   2.029       .  S
O972        C985   1.258       .  A
O972       Co980   1.869       .  S
O973        C986   1.262       .  A
O973       Co981   1.964       .  S
O974        C986   1.272       .  A
O974       Co979   2.011       .  S
O975        C985   1.302       .  A
O975       Co978   2.106       .  S
O976        C983   1.261       .  A
O976       Co981   1.993       .  S
O977        C984   1.270       .  A
O977       Co980   1.984       .  S
Co978       O982   1.998       .  S
Co979       O982   2.023       .  S
Co980       O982   2.001       .  S
Co981       O982   2.053       .  S
C983       C2708   1.508       .  S
C984       C4083   1.500       .  S
C985       C4447   1.474       .  S
C986       C2949   1.483       .  S
O987        C995   1.278       .  A
O987      Co1007   2.071       .  S
O988        C996   1.253       .  A
O988      Co1008   1.972       .  S
O989        C997   1.238       .  A
O989      Co1009   1.897       .  S
O990        C998   1.253       .  A
O990      Co1010   1.929       .  S
O991        C997   1.262       .  A
O991      Co1008   2.017       .  S
O992        C998   1.283       .  A
O992      Co1007   2.055       .  S
O993        C996   1.259       .  A
O993      Co1010   2.020       .  S
O994        C995   1.241       .  A
O994      Co1009   1.926       .  S
C995       C2879   1.497       .  S
C996       C2722   1.497       .  S
C997       C2809   1.456       .  S
C998       C2753   1.485       .  S
O999       C1012   1.232       .  A
O999      Co1007   1.941       .  S
O1000      C1013   1.259       .  A
O1000     Co1008   1.977       .  S
O1001      C1014   1.254       .  A
O1001     Co1009   2.005       .  S
O1002      C1015   1.255       .  A
O1002     Co1010   1.977       .  S
O1003      C1015   1.260       .  A
O1003     Co1008   1.981       .  S
O1004      C1014   1.254       .  A
O1004     Co1007   1.995       .  S
O1005      C1012   1.251       .  A
O1005     Co1010   2.029       .  S
O1006      C1013   1.266       .  A
O1006     Co1009   2.009       .  S
Co1007     O1011   2.098       .  S
Co1008     O1011   2.106       .  S
Co1009     O1011   2.031       .  S
Co1010     O1011   2.168       .  S
C1012      C3240   1.465       .  S
C1013      C3915   1.471       .  S
C1014      C4335   1.493       .  S
C1015      C2694   1.469       .  S
O1016      C1024   1.252       .  A
O1016     Co1036   1.989       .  S
O1017      C1025   1.260       .  A
O1017     Co1037   1.971       .  S
O1018      C1026   1.299       .  A
O1018     Co1038   2.116       .  S
O1019      C1027   1.266       .  A
O1019     Co1039   1.968       .  S
O1020      C1026   1.249       .  A
O1020     Co1037   1.923       .  S
O1021      C1027   1.285       .  A
O1021     Co1036   2.031       .  S
O1022      C1025   1.263       .  A
O1022     Co1039   2.011       .  S
O1023      C1024   1.275       .  A
O1023     Co1038   2.075       .  S
C1024      C2655   1.499       .  S
C1025      C2680   1.476       .  S
C1026      C2638   1.495       .  S
C1027      C2666   1.504       .  S
O1028      C1041   1.260       .  A
O1028     Co1036   2.009       .  S
O1029      C1042   1.275       .  A
O1029     Co1037   2.034       .  S
O1030      C1043   1.286       .  A
O1030     Co1038   1.961       .  S
O1031      C1044   1.269       .  A
O1031     Co1039   1.967       .  S
O1032      C1044   1.273       .  A
O1032     Co1037   2.007       .  S
O1033      C1043   1.298       .  A
O1033     Co1036   1.992       .  S
O1034      C1041   1.255       .  A
O1034     Co1039   1.991       .  S
O1035      C1042   1.273       .  A
O1035     Co1038   2.003       .  S
Co1036     O1040   2.017       .  S
Co1037     O1040   2.008       .  S
Co1038     O1040   2.056       .  S
Co1039     O1040   2.073       .  S
C1041      C2624   1.503       .  S
C1042      C4153   1.518       .  S
C1043      C5049   1.480       .  S
C1044      C2767   1.482       .  S
O1045      C1053   1.300       .  A
O1045     Co1065   2.114       .  S
O1046      C1054   1.275       .  A
O1046     Co1066   2.024       .  S
O1047      C1055   1.267       .  A
O1047     Co1067   1.964       .  S
O1048      C1056   1.260       .  A
O1048     Co1068   1.984       .  S
O1049      C1055   1.280       .  A
O1049     Co1066   2.044       .  S
O1050      C1056   1.260       .  A
O1050     Co1065   1.995       .  S
O1051      C1054   1.264       .  A
O1051     Co1068   1.959       .  S
O1052      C1053   1.271       .  A
O1052     Co1067   1.925       .  S
C1053      C4517   1.502       .  S
C1054      C2568   1.487       .  S
C1055      C3929   1.490       .  S
C1056      C2554   1.488       .  S
O1057      C1070   1.272       .  A
O1057     Co1065   1.980       .  S
O1058      C1071   1.250       .  A
O1058     Co1066   1.959       .  S
O1059      C1072   1.285       .  A
O1059     Co1067   2.079       .  S
O1060      C1073   1.273       .  A
O1060     Co1068   2.064       .  S
O1061      C1073   1.252       .  A
O1061     Co1066   1.955       .  S
O1062      C1072   1.266       .  A
O1062     Co1065   1.888       .  S
O1063      C1070   1.284       .  A
O1063     Co1068   2.046       .  S
O1064      C1071   1.272       .  A
O1064     Co1067   2.027       .  S
Co1065     O1069   2.017       .  S
Co1066     O1069   2.024       .  S
Co1067     O1069   2.032       .  S
Co1068     O1069   2.057       .  S
C1070      C2669   1.506       .  S
C1071      C2582   1.476       .  S
C1072      C2596   1.471       .  S
C1073      C2610   1.502       .  S
O1074      C1082   1.321       .  A
O1074     Co1094   2.167       .  S
O1075      C1083   1.275       .  A
O1075     Co1095   2.058       .  S
O1076      C1084   1.268       .  A
O1076     Co1096   1.977       .  S
O1077      C1085   1.259       .  A
O1077     Co1097   1.986       .  S
O1078      C1084   1.280       .  A
O1078     Co1095   2.031       .  S
O1079      C1085   1.269       .  A
O1079     Co1094   2.022       .  S
O1080      C1083   1.258       .  A
O1080     Co1097   1.982       .  S
O1081      C1082   1.282       .  A
O1081     Co1096   1.863       .  S
C1082      C4909   1.490       .  S
C1083      C2851   1.521       .  S
C1084      C4769   1.506       .  S
C1085      C2512   1.510       .  S
O1086      C1099   1.251       .  A
O1086     Co1094   1.950       .  S
O1087      C1100   1.254       .  A
O1087     Co1095   1.959       .  S
O1088      C1101   1.249       .  A
O1088     Co1096   2.071       .  S
O1089      C1102   1.278       .  A
O1089     Co1097   2.052       .  S
O1090      C1102   1.250       .  A
O1090     Co1095   1.934       .  S
O1091      C1101   1.232       .  A
O1091     Co1094   1.953       .  S
O1092      C1099   1.273       .  A
O1092     Co1097   2.068       .  S
O1093      C1100   1.282       .  A
O1093     Co1096   2.059       .  S
Co1094     O1098   2.079       .  S
Co1095     O1098   2.051       .  S
Co1096     O1098   2.037       .  S
Co1097     O1098   2.124       .  S
C1099      C2613   1.504       .  S
C1100      C2540   1.486       .  S
C1101      C2526   1.493       .  S
C1102      C2683   1.474       .  S
O1103      C1111   1.255       .  A
O1103     Co1123   1.974       .  S
O1104      C1112   1.262       .  A
O1104     Co1124   1.944       .  S
O1105      C1113   1.288       .  A
O1105     Co1125   2.083       .  S
O1106      C1114   1.277       .  A
O1106     Co1126   2.053       .  S
O1107      C1113   1.267       .  A
O1107     Co1124   1.885       .  S
O1108      C1114   1.254       .  A
O1108     Co1123   1.951       .  S
O1109      C1112   1.274       .  A
O1109     Co1126   2.021       .  S
O1110      C1111   1.276       .  A
O1110     Co1125   2.062       .  S
C1111      C2652   1.510       .  S
C1112      C2484   1.471       .  S
C1113      C2599   1.463       .  S
C1114      C2498   1.487       .  S
O1115      C1128   1.274       .  A
O1115     Co1123   2.022       .  S
O1116      C1129   1.294       .  A
O1116     Co1124   2.093       .  S
O1117      C1130   1.268       .  A
O1117     Co1125   1.961       .  S
O1118      C1131   1.268       .  A
O1118     Co1126   2.005       .  S
O1119      C1131   1.269       .  A
O1119     Co1124   2.013       .  S
O1120      C1130   1.283       .  A
O1120     Co1123   2.017       .  S
O1121      C1128   1.266       .  A
O1121     Co1126   1.961       .  S
O1122      C1129   1.273       .  A
O1122     Co1125   1.922       .  S
Co1123     O1127   2.000       .  S
Co1124     O1127   1.974       .  S
Co1125     O1127   2.022       .  S
Co1126     O1127   2.058       .  S
C1128      C2470   1.483       .  S
C1129      C4531   1.492       .  S
C1130      C5060   1.485       .  S
C1131      C2711   1.509       .  S
O1132      C1140   1.229       .  A
O1132     Co1152   1.952       .  S
O1133      C1141   1.262       .  A
O1133     Co1153   1.951       .  S
O1134      C1142   1.280       .  A
O1134     Co1154   2.048       .  S
O1135      C1143   1.273       .  A
O1135     Co1155   2.049       .  S
O1136      C1142   1.263       .  A
O1136     Co1153   1.959       .  S
O1137      C1143   1.256       .  A
O1137     Co1152   1.959       .  S
O1138      C1141   1.280       .  A
O1138     Co1155   2.060       .  S
O1139      C1140   1.247       .  A
O1139     Co1154   2.081       .  S
C1140      C2543   1.491       .  S
C1141      C2501   1.488       .  S
C1142      C2641   1.476       .  S
C1143      C2456   1.487       .  S
O1144      C1157   1.258       .  A
O1144     Co1152   1.992       .  S
O1145      C1158   1.276       .  A
O1145     Co1153   2.031       .  S
O1146      C1159   1.283       .  A
O1146     Co1154   1.880       .  S
O1147      C1160   1.262       .  A
O1147     Co1155   1.983       .  S
O1148      C1160   1.269       .  A
O1148     Co1153   2.033       .  S
O1149      C1159   1.324       .  A
O1149     Co1152   2.172       .  S
O1150      C1157   1.268       .  A
O1150     Co1155   2.000       .  S
O1151      C1158   1.268       .  A
O1151     Co1154   1.973       .  S
Co1152     O1156   2.073       .  S
Co1153     O1156   2.070       .  S
Co1154     O1156   2.044       .  S
Co1155     O1156   2.106       .  S
C1157      C2428   1.501       .  S
C1158      C4164   1.495       .  S
C1159      C4783   1.499       .  S
C1160      C2442   1.506       .  S
O1161      C1169   1.290       .  A
O1161     Co1181   2.004       .  S
O1162      C1170   1.251       .  A
O1162     Co1182   1.965       .  S
O1163      C1171   1.255       .  A
O1163     Co1183   1.984       .  S
O1164      C1172   1.254       .  A
O1164     Co1184   1.985       .  S
O1165      C1171   1.272       .  A
O1165     Co1182   2.021       .  S
O1166      C1172   1.264       .  A
O1166     Co1181   2.013       .  S
O1167      C1170   1.250       .  A
O1167     Co1184   1.983       .  S
O1168      C1169   1.272       .  A
O1168     Co1183   1.911       .  S
C1169      C4920   1.474       .  S
C1170      C2697   1.467       .  S
C1171      C3943   1.514       .  S
C1172      C2417   1.501       .  S
O1173      C1186   1.286       .  A
O1173     Co1181   2.058       .  S
O1174      C1187   1.245       .  A
O1174     Co1182   1.927       .  S
O1175      C1188   1.271       .  A
O1175     Co1183   2.046       .  S
O1176      C1189   1.272       .  A
O1176     Co1184   2.010       .  S
O1177      C1189   1.259       .  A
O1177     Co1182   1.936       .  S
O1178      C1188   1.248       .  A
O1178     Co1181   2.004       .  S
O1179      C1186   1.267       .  A
O1179     Co1184   1.957       .  S
O1180      C1187   1.292       .  A
O1180     Co1183   2.080       .  S
Co1181     O1185   2.084       .  S
Co1182     O1185   2.103       .  S
Co1183     O1185   2.019       .  S
Co1184     O1185   2.088       .  S
C1186      C2459   1.500       .  S
C1187      C2585   1.469       .  S
C1188      C2529   1.501       .  S
C1189      C2487   1.477       .  S
O1190      C1198   1.298       .  A
O1190     Co1210   2.104       .  S
O1191      C1199   1.274       .  A
O1191     Co1211   2.014       .  S
O1192      C1200   1.279       .  A
O1192     Co1212   2.005       .  S
O1193      C1201   1.265       .  A
O1193     Co1213   1.998       .  S
O1194      C1200   1.281       .  A
O1194     Co1211   2.044       .  S
O1195      C1201   1.258       .  A
O1195     Co1210   1.992       .  S
O1196      C1199   1.267       .  A
O1196     Co1213   1.956       .  S
O1197      C1198   1.269       .  A
O1197     Co1212   1.871       .  S
C1198      C5018   1.479       .  S
C1199      C3075   1.479       .  S
C1200      C4094   1.522       .  S
C1201      C2344   1.488       .  S
O1202      C1215   1.272       .  A
O1202     Co1210   1.981       .  S
O1203      C1216   1.257       .  A
O1203     Co1211   1.969       .  S
O1204      C1217   1.294       .  A
O1204     Co1212   2.115       .  S
O1205      C1218   1.269       .  A
O1205     Co1213   2.032       .  S
O1206      C1218   1.257       .  A
O1206     Co1211   1.945       .  S
O1207      C1217   1.262       .  A
O1207     Co1210   1.888       .  S
O1208      C1215   1.279       .  A
O1208     Co1213   2.046       .  S
O1209      C1216   1.261       .  A
O1209     Co1212   2.002       .  S
Co1210     O1214   1.994       .  S
Co1211     O1214   2.010       .  S
Co1212     O1214   2.015       .  S
Co1213     O1214   2.061       .  S
C1215      C2386   1.501       .  S
C1216      C2372   1.470       .  S
C1217      C2358   1.463       .  S
C1218      C2400   1.477       .  S
O1219      C1227   1.240       .  A
O1219     Co1239   1.991       .  S
O1220      C1228   1.260       .  A
O1220     Co1240   1.954       .  S
O1221      C1229   1.274       .  A
O1221     Co1241   2.054       .  S
O1222      C1230   1.260       .  A
O1222     Co1242   1.963       .  S
O1223      C1229   1.253       .  A
O1223     Co1240   1.933       .  S
O1224      C1230   1.287       .  A
O1224     Co1239   2.037       .  S
O1225      C1228   1.273       .  A
O1225     Co1242   2.022       .  S
O1226      C1227   1.243       .  A
O1226     Co1241   2.006       .  S
C1227      C2302   1.484       .  S
C1228      C2403   1.473       .  S
C1229      C2288   1.464       .  S
C1230      C2330   1.506       .  S
O1231      C1244   1.258       .  A
O1231     Co1239   1.987       .  S
O1232      C1245   1.280       .  A
O1232     Co1240   2.041       .  S
O1233      C1246   1.294       .  A
O1233     Co1241   1.942       .  S
O1234      C1247   1.264       .  A
O1234     Co1242   1.977       .  S
O1235      C1247   1.267       .  A
O1235     Co1240   1.984       .  S
O1236      C1246   1.309       .  A
O1236     Co1239   2.017       .  S
O1237      C1244   1.261       .  A
O1237     Co1242   2.011       .  S
O1238      C1245   1.273       .  A
O1238     Co1241   1.971       .  S
Co1239     O1243   2.001       .  S
Co1240     O1243   2.005       .  S
Co1241     O1243   2.072       .  S
Co1242     O1243   2.070       .  S
C1244      C2515   1.495       .  S
C1245      C2316   1.500       .  S
C1246      C4881   1.482       .  S
C1247      C3145   1.472       .  S
O1248      C1256   1.254       .  A
O1248     Co1268   1.970       .  S
O1249      C1257   1.272       .  A
O1249     Co1269   1.985       .  S
O1250      C1258   1.293       .  A
O1250     Co1270   2.106       .  S
O1251      C1259   1.274       .  A
O1251     Co1271   2.063       .  S
O1252      C1258   1.263       .  A
O1252     Co1269   1.896       .  S
O1253      C1259   1.249       .  A
O1253     Co1268   1.946       .  S
O1254      C1257   1.281       .  A
O1254     Co1271   2.050       .  S
O1255      C1256   1.268       .  A
O1255     Co1270   2.012       .  S
C1256      C2274   1.478       .  S
C1257      C2333   1.503       .  S
C1258      C2260   1.477       .  S
C1259      C2389   1.493       .  S
O1260      C1273   1.280       .  A
O1260     Co1268   2.051       .  S
O1261      C1274   1.299       .  A
O1261     Co1269   2.114       .  S
O1262      C1275   1.278       .  A
O1262     Co1270   2.003       .  S
O1263      C1276   1.265       .  A
O1263     Co1271   2.003       .  S
O1264      C1276   1.259       .  A
O1264     Co1269   1.968       .  S
O1265      C1275   1.280       .  A
O1265     Co1268   2.027       .  S
O1266      C1273   1.268       .  A
O1266     Co1271   1.975       .  S
O1267      C1274   1.272       .  A
O1267     Co1270   1.910       .  S
Co1268     O1272   2.014       .  S
Co1269     O1272   2.011       .  S
Co1270     O1272   2.031       .  S
Co1271     O1272   2.073       .  S
C1273      C2246   1.502       .  S
C1274      C3957   1.495       .  S
C1275      C4290   1.514       .  S
C1276      C2571   1.483       .  S
O1277      C1285   1.275       .  A
O1277     Co1297   1.905       .  S
O1278      C1286   1.250       .  A
O1278     Co1298   1.943       .  S
O1279      C1287   1.248       .  A
O1279     Co1299   1.908       .  S
O1280      C1288   1.275       .  A
O1280     Co1300   2.048       .  S
O1281      C1287   1.258       .  A
O1281     Co1298   1.990       .  S
O1282      C1288   1.266       .  A
O1282     Co1297   1.984       .  S
O1283      C1286   1.271       .  A
O1283     Co1300   2.046       .  S
O1284      C1285   1.295       .  A
O1284     Co1299   2.085       .  S
C1285      C2305   1.499       .  S
C1286      C2218   1.478       .  S
C1287      C2263   1.466       .  S
C1288      C2232   1.504       .  S
O1289      C1302   1.278       .  A
O1289     Co1297   2.025       .  S
O1290      C1303   1.274       .  A
O1290     Co1298   2.034       .  S
O1291      C1304   1.233       .  A
O1291     Co1299   1.921       .  S
O1292      C1305   1.272       .  A
O1292     Co1300   2.010       .  S
O1293      C1305   1.267       .  A
O1293     Co1298   2.014       .  S
O1294      C1304   1.278       .  A
O1294     Co1297   2.109       .  S
O1295      C1302   1.264       .  A
O1295     Co1300   1.961       .  S
O1296      C1303   1.253       .  A
O1296     Co1299   1.922       .  S
Co1297     O1301   2.031       .  S
Co1298     O1301   2.098       .  S
Co1299     O1301   2.030       .  S
Co1300     O1301   2.086       .  S
C1302      C2204   1.486       .  S
C1303      C3971   1.490       .  S
C1304      C4892   1.515       .  S
C1305      C2921   1.506       .  S
O1306      C1314   1.269       .  A
O1306     Co1326   2.027       .  S
O1307      C1315   1.249       .  A
O1307     Co1327   1.964       .  S
O1308      C1316   1.242       .  A
O1308     Co1328   1.943       .  S
O1309      C1317   1.263       .  A
O1309     Co1329   1.953       .  S
O1310      C1316   1.272       .  A
O1310     Co1327   2.015       .  S
O1311      C1317   1.278       .  A
O1311     Co1326   2.037       .  S
O1312      C1315   1.259       .  A
O1312     Co1329   2.012       .  S
O1313      C1314   1.249       .  A
O1313     Co1328   1.945       .  S
C1314      C5032   1.477       .  S
C1315      C2935   1.481       .  S
C1316      C4304   1.479       .  S
C1317      C2473   1.477       .  S
O1318      C1331   1.248       .  A
O1318     Co1326   1.950       .  S
O1319      C1332   1.257       .  A
O1319     Co1327   1.946       .  S
O1320      C1333   1.262       .  A
O1320     Co1328   1.984       .  S
O1321      C1334   1.256       .  A
O1321     Co1329   1.971       .  S
O1322      C1334   1.260       .  A
O1322     Co1327   1.994       .  S
O1323      C1333   1.265       .  A
O1323     Co1326   2.003       .  S
O1324      C1331   1.260       .  A
O1324     Co1329   2.025       .  S
O1325      C1332   1.279       .  A
O1325     Co1328   2.055       .  S
Co1326     O1330   2.105       .  S
Co1327     O1330   2.082       .  S
Co1328     O1330   2.023       .  S
Co1329     O1330   2.135       .  S
C1331      C2190   1.470       .  S
C1332      C2277   1.474       .  S
C1333      C2361   1.485       .  S
C1334      C2221   1.486       .  S
O1335      C1343   1.265       .  A
O1335     Co1355   1.890       .  S
O1336      C1344   1.250       .  A
O1336     Co1356   1.961       .  S
O1337      C1345   1.265       .  A
O1337     Co1357   2.029       .  S
O1338      C1346   1.272       .  A
O1338     Co1358   2.015       .  S
O1339      C1345   1.246       .  A
O1339     Co1356   1.949       .  S
O1340      C1346   1.268       .  A
O1340     Co1355   1.967       .  S
O1341      C1344   1.281       .  A
O1341     Co1358   2.076       .  S
O1342      C1343   1.294       .  A
O1342     Co1357   2.110       .  S
C1343      C2375   1.483       .  S
C1344      C2235   1.504       .  S
C1345      C2291   1.474       .  S
C1346      C2193   1.476       .  S
O1347      C1360   1.266       .  A
O1347     Co1355   1.990       .  S
O1348      C1361   1.282       .  A
O1348     Co1356   2.034       .  S
O1349      C1362   1.271       .  A
O1349     Co1357   1.917       .  S
O1350      C1363   1.268       .  A
O1350     Co1358   1.968       .  S
O1351      C1363   1.277       .  A
O1351     Co1356   2.034       .  S
O1352      C1362   1.303       .  A
O1352     Co1355   2.125       .  S
O1353      C1360   1.271       .  A
O1353     Co1358   2.016       .  S
O1354      C1361   1.274       .  A
O1354     Co1357   1.973       .  S
Co1355     O1359   1.989       .  S
Co1356     O1359   2.006       .  S
Co1357     O1359   2.042       .  S
Co1358     O1359   2.068       .  S
C1360      C2445   1.500       .  S
C1361      C2176   1.490       .  S
C1362      C4111   1.503       .  S
C1363      C2162   1.488       .  S
O1364      C1372   1.295       .  A
O1364     Co1384   2.080       .  S
O1365      C1373   1.273       .  A
O1365     Co1385   2.019       .  S
O1366      C1374   1.282       .  A
O1366     Co1386   2.011       .  S
O1367      C1375   1.275       .  A
O1367     Co1387   2.038       .  S
O1368      C1374   1.274       .  A
O1368     Co1385   2.001       .  S
O1369      C1375   1.254       .  A
O1369     Co1384   1.946       .  S
O1370      C1373   1.267       .  A
O1370     Co1387   1.975       .  S
O1371      C1372   1.281       .  A
O1371     Co1386   1.932       .  S
C1372      C5077   1.486       .  S
C1373      C3383   1.492       .  S
C1374      C4710   1.504       .  S
C1375      C2627   1.506       .  S
O1376      C1389   1.260       .  A
O1376     Co1384   1.964       .  S
O1377      C1390   1.262       .  A
O1377     Co1385   1.958       .  S
O1378      C1391   1.267       .  A
O1378     Co1386   2.064       .  S
O1379      C1392   1.272       .  A
O1379     Co1387   2.032       .  S
O1380      C1392   1.258       .  A
O1380     Co1385   1.956       .  S
O1381      C1391   1.244       .  A
O1381     Co1384   1.940       .  S
O1382      C1389   1.275       .  A
O1382     Co1387   2.051       .  S
O1383      C1390   1.273       .  A
O1383     Co1386   2.026       .  S
Co1384     O1388   2.042       .  S
Co1385     O1388   2.032       .  S
Co1386     O1388   2.029       .  S
Co1387     O1388   2.107       .  S
C1389      C2148   1.516       .  S
C1390      C2120   1.468       .  S
C1391      C2106   1.493       .  S
C1392      C2137   1.486       .  S
O1393      C1401   1.283       .  A
O1393     Co1413   2.049       .  S
O1394      C1402   1.263       .  A
O1394     Co1414   1.995       .  S
O1395      C1403   1.273       .  A
O1395     Co1415   1.877       .  S
O1396      C1404   1.269       .  A
O1396     Co1416   1.977       .  S
O1397      C1403   1.290       .  A
O1397     Co1414   2.075       .  S
O1398      C1404   1.280       .  A
O1398     Co1413   2.033       .  S
O1399      C1402   1.260       .  A
O1399     Co1416   1.989       .  S
O1400      C1401   1.271       .  A
O1400     Co1415   1.987       .  S
C1401      C4629   1.518       .  S
C1402      C2557   1.489       .  S
C1403      C4489   1.466       .  S
C1404      C2050   1.500       .  S
O1405      C1418   1.247       .  A
O1405     Co1413   1.944       .  S
O1406      C1419   1.263       .  A
O1406     Co1414   1.902       .  S
O1407      C1420   1.264       .  A
O1407     Co1415   2.032       .  S
O1408      C1421   1.285       .  A
O1408     Co1416   2.067       .  S
O1409      C1421   1.267       .  A
O1409     Co1414   1.976       .  S
O1410      C1420   1.249       .  A
O1410     Co1413   1.950       .  S
O1411      C1418   1.268       .  A
O1411     Co1416   2.027       .  S
O1412      C1419   1.287       .  A
O1412     Co1415   2.085       .  S
Co1413     O1417   1.989       .  S
Co1414     O1417   1.995       .  S
Co1415     O1417   2.040       .  S
Co1416     O1417   2.064       .  S
C1418      C2092   1.477       .  S
C1419      C2078   1.474       .  S
C1420      C2064   1.481       .  S
C1421      C2151   1.504       .  S
O1422      C1430   1.261       .  A
O1422     Co1442   1.964       .  S
O1423      C1431   1.280       .  A
O1423     Co1443   2.017       .  S
O1424      C1432   1.240       .  A
O1424     Co1444   2.024       .  S
O1425      C1433   1.264       .  A
O1425     Co1445   2.011       .  S
O1426      C1432   1.240       .  A
O1426     Co1443   2.002       .  S
O1427      C1433   1.263       .  A
O1427     Co1442   1.967       .  S
O1428      C1431   1.267       .  A
O1428     Co1445   1.967       .  S
O1429      C1430   1.283       .  A
O1429     Co1444   2.053       .  S
C1430      C2036   1.496       .  S
C1431      C2134   1.486       .  S
C1432      C2022   1.501       .  S
C1433      C2095   1.477       .  S
O1434      C1447   1.274       .  A
O1434     Co1442   2.037       .  S
O1435      C1448   1.299       .  A
O1435     Co1443   1.994       .  S
O1436      C1449   1.270       .  A
O1436     Co1444   1.984       .  S
O1437      C1450   1.254       .  A
O1437     Co1445   1.979       .  S
O1438      C1450   1.263       .  A
O1438     Co1443   2.000       .  S
O1439      C1449   1.274       .  A
O1439     Co1442   2.017       .  S
O1440      C1447   1.259       .  A
O1440     Co1445   1.957       .  S
O1441      C1448   1.298       .  A
O1441     Co1444   1.979       .  S
Co1442     O1446   2.038       .  S
Co1443     O1446   2.010       .  S
Co1444     O1446   2.087       .  S
Co1445     O1446   2.075       .  S
C1447      C2008   1.492       .  S
C1448      C4850   1.475       .  S
C1449      C4937   1.487       .  S
C1450      C3436   1.487       .  S
O1451      C1459   1.271       .  A
O1451     Co1471   1.999       .  S
O1452      C1460   1.265       .  A
O1452     Co1472   2.010       .  S
O1453      C1461   1.237       .  A
O1453     Co1473   1.920       .  S
O1454      C1462   1.258       .  A
O1454     Co1474   1.945       .  S
O1455      C1461   1.273       .  A
O1455     Co1472   2.047       .  S
O1456      C1462   1.285       .  A
O1456     Co1471   2.062       .  S
O1457      C1460   1.253       .  A
O1457     Co1474   1.969       .  S
O1458      C1459   1.258       .  A
O1458     Co1473   1.950       .  S
C1459      C4867   1.476       .  S
C1460      C1966   1.484       .  S
C1461      C4724   1.478       .  S
C1462      C2431   1.503       .  S
O1463      C1476   1.244       .  A
O1463     Co1471   1.944       .  S
O1464      C1477   1.265       .  A
O1464     Co1472   1.885       .  S
O1465      C1478   1.248       .  A
O1465     Co1473   1.962       .  S
O1466      C1479   1.281       .  A
O1466     Co1474   2.046       .  S
O1467      C1479   1.268       .  A
O1467     Co1472   1.971       .  S
O1468      C1478   1.269       .  A
O1468     Co1471   2.023       .  S
O1469      C1476   1.266       .  A
O1469     Co1474   2.057       .  S
O1470      C1477   1.295       .  A
O1470     Co1473   2.078       .  S
Co1471     O1475   2.067       .  S
Co1472     O1475   1.986       .  S
Co1473     O1475   2.062       .  S
Co1474     O1475   2.090       .  S
C1476      C1994   1.491       .  S
C1477      C2123   1.460       .  S
C1478      C2025   1.483       .  S
C1479      C1980   1.494       .  S
O1480      C1488   1.277       .  A
O1480     Co1500   2.028       .  S
O1481      C1489   1.270       .  A
O1481     Co1501   2.040       .  S
O1482      C1490   1.267       .  A
O1482     Co1502   1.895       .  S
O1483      C1491   1.251       .  A
O1483     Co1503   1.939       .  S
O1484      C1490   1.289       .  A
O1484     Co1501   2.085       .  S
O1485      C1491   1.279       .  A
O1485     Co1500   2.067       .  S
O1486      C1489   1.254       .  A
O1486     Co1503   1.953       .  S
O1487      C1488   1.273       .  A
O1487     Co1502   1.984       .  S
C1488      C2039   1.502       .  S
C1489      C1955   1.491       .  S
C1490      C2067   1.467       .  S
C1491      C1997   1.491       .  S
O1492      C1505   1.250       .  A
O1492     Co1500   1.944       .  S
O1493      C1506   1.268       .  A
O1493     Co1501   1.890       .  S
O1494      C1507   1.261       .  A
O1494     Co1502   2.002       .  S
O1495      C1508   1.276       .  A
O1495     Co1503   2.031       .  S
O1496      C1508   1.264       .  A
O1496     Co1501   1.972       .  S
O1497      C1507   1.253       .  A
O1497     Co1500   1.966       .  S
O1498      C1505   1.277       .  A
O1498     Co1503   2.064       .  S
O1499      C1506   1.298       .  A
O1499     Co1502   2.124       .  S
Co1500     O1504   2.034       .  S
Co1501     O1504   2.018       .  S
Co1502     O1504   2.031       .  S
Co1503     O1504   2.049       .  S
C1505      C2414   1.501       .  S
C1506      C4643   1.502       .  S
C1507      C4951   1.477       .  S
C1508      C3229   1.486       .  S
O1509      C1517   1.255       .  A
O1509     Co1529   1.964       .  S
O1510      C1518   1.251       .  A
O1510     Co1530   2.003       .  S
O1511      C1519   1.305       .  A
O1511     Co1531   2.116       .  S
O1512      C1520   1.272       .  A
O1512     Co1532   2.014       .  S
O1513      C1519   1.259       .  A
O1513     Co1530   1.884       .  S
O1514      C1520   1.262       .  A
O1514     Co1529   1.974       .  S
O1515      C1518   1.258       .  A
O1515     Co1532   2.021       .  S
O1516      C1517   1.269       .  A
O1516     Co1531   2.028       .  S
C1517      C5088   1.487       .  S
C1518      C3285   1.490       .  S
C1519      C4503   1.496       .  S
C1520      C1938   1.489       .  S
O1521      C1534   1.265       .  A
O1521     Co1529   1.985       .  S
O1522      C1535   1.295       .  A
O1522     Co1530   2.094       .  S
O1523      C1536   1.247       .  A
O1523     Co1531   2.003       .  S
O1524      C1537   1.264       .  A
O1524     Co1532   1.982       .  S
O1525      C1537   1.271       .  A
O1525     Co1530   2.014       .  S
O1526      C1536   1.259       .  A
O1526     Co1529   2.017       .  S
O1527      C1534   1.263       .  A
O1527     Co1532   2.000       .  S
O1528      C1535   1.259       .  A
O1528     Co1531   1.891       .  S
Co1529     O1533   2.088       .  S
Co1530     O1533   2.041       .  S
Co1531     O1533   2.060       .  S
Co1532     O1533   2.108       .  S
C1534      C1983   1.501       .  S
C1535      C2081   1.473       .  S
C1536      C2109   1.491       .  S
C1537      C1952   1.484       .  S
O1538      C1546   1.257       .  A
O1538     Co1558   1.962       .  S
O1539      C1547   1.270       .  A
O1539     Co1559   1.985       .  S
O1540      C1548   1.300       .  A
O1540     Co1560   2.133       .  S
O1541      C1549   1.268       .  A
O1541     Co1561   2.029       .  S
O1542      C1548   1.268       .  A
O1542     Co1559   1.914       .  S
O1543      C1549   1.253       .  A
O1543     Co1558   1.947       .  S
O1544      C1547   1.284       .  A
O1544     Co1561   2.063       .  S
O1545      C1546   1.259       .  A
O1545     Co1560   1.997       .  S
C1546      C1899   1.465       .  S
C1547      C1924   1.511       .  S
C1548      C1882   1.510       .  S
C1549      C1910   1.464       .  S
O1550      C1563   1.276       .  A
O1550     Co1558   2.029       .  S
O1551      C1564   1.300       .  A
O1551     Co1559   2.117       .  S
O1552      C1565   1.280       .  A
O1552     Co1560   2.006       .  S
O1553      C1566   1.263       .  A
O1553     Co1561   1.992       .  S
O1554      C1566   1.271       .  A
O1554     Co1559   2.020       .  S
O1555      C1565   1.277       .  A
O1555     Co1558   2.022       .  S
O1556      C1563   1.274       .  A
O1556     Co1561   1.986       .  S
O1557      C1564   1.270       .  A
O1557     Co1560   1.878       .  S
Co1558     O1562   2.008       .  S
Co1559     O1562   2.002       .  S
Co1560     O1562   2.019       .  S
Co1561     O1562   2.059       .  S
C1563      C2053   1.500       .  S
C1564      C4265   1.486       .  S
C1565      C4601   1.509       .  S
C1566      C2249   1.498       .  S
O1567      C1575   1.266       .  A
O1567     Co1587   1.873       .  S
O1568      C1576   1.238       .  A
O1568     Co1588   1.937       .  S
O1569      C1577   1.236       .  A
O1569     Co1589   1.920       .  S
O1570      C1578   1.272       .  A
O1570     Co1590   2.026       .  S
O1571      C1577   1.264       .  A
O1571     Co1588   2.029       .  S
O1572      C1578   1.262       .  A
O1572     Co1587   1.980       .  S
O1573      C1576   1.270       .  A
O1573     Co1590   2.049       .  S
O1574      C1575   1.298       .  A
O1574     Co1589   2.082       .  S
C1575      C4965   1.478       .  S
C1576      C3663   1.481       .  S
C1577      C1854   1.481       .  S
C1578      C2011   1.478       .  S
O1579      C1592   1.265       .  A
O1579     Co1587   2.037       .  S
O1580      C1593   1.275       .  A
O1580     Co1588   2.007       .  S
O1581      C1594   1.233       .  A
O1581     Co1589   1.893       .  S
O1582      C1595   1.250       .  A
O1582     Co1590   1.927       .  S
O1583      C1595   1.281       .  A
O1583     Co1588   2.077       .  S
O1584      C1594   1.278       .  A
O1584     Co1587   2.076       .  S
O1585      C1592   1.249       .  A
O1585     Co1590   1.944       .  S
O1586      C1593   1.264       .  A
O1586     Co1589   1.954       .  S
Co1587     O1591   1.998       .  S
Co1588     O1591   2.073       .  S
Co1589     O1591   2.024       .  S
Co1590     O1591   2.056       .  S
C1592      C1913   1.485       .  S
C1593      C1826   1.472       .  S
C1594      C1843   1.486       .  S
C1595      C1868   1.490       .  S
O1596      C1604   1.256       .  A
O1596     Co1616   1.973       .  S
O1597      C1605   1.245       .  A
O1597     Co1617   1.940       .  S
O1598      C1606   1.278       .  A
O1598     Co1618   2.059       .  S
O1599      C1607   1.287       .  A
O1599     Co1619   2.113       .  S
O1600      C1606   1.250       .  A
O1600     Co1617   1.932       .  S
O1601      C1607   1.250       .  A
O1601     Co1616   1.936       .  S
O1602      C1605   1.263       .  A
O1602     Co1619   2.044       .  S
O1603      C1604   1.268       .  A
O1603     Co1618   2.044       .  S
C1604      C1798   1.501       .  S
C1605      C1871   1.481       .  S
C1606      C1812   1.473       .  S
C1607      C1927   1.514       .  S
O1608      C1621   1.271       .  A
O1608     Co1616   2.038       .  S
O1609      C1622   1.265       .  A
O1609     Co1617   2.004       .  S
O1610      C1623   1.268       .  A
O1610     Co1618   1.985       .  S
O1611      C1624   1.268       .  A
O1611     Co1619   1.991       .  S
O1612      C1624   1.280       .  A
O1612     Co1617   2.068       .  S
O1613      C1623   1.276       .  A
O1613     Co1616   2.039       .  S
O1614      C1621   1.250       .  A
O1614     Co1619   1.955       .  S
O1615      C1622   1.260       .  A
O1615     Co1618   1.978       .  S
Co1616     O1620   2.100       .  S
Co1617     O1620   2.094       .  S
Co1618     O1620   2.144       .  S
Co1619     O1620   2.147       .  S
C1621      C2347   1.492       .  S
C1622      C4685   1.493       .  S
C1623      C4993   1.507       .  S
C1624      C3803   1.522       .  S
O1625      C1633   1.296       .  A
O1625     Co1645   2.091       .  S
O1626      C1634   1.275       .  A
O1626     Co1646   2.013       .  S
O1627      C1635   1.275       .  A
O1627     Co1647   1.995       .  S
O1628      C1636   1.257       .  A
O1628     Co1648   1.968       .  S
O1629      C1635   1.280       .  A
O1629     Co1646   2.037       .  S
O1630      C1636   1.263       .  A
O1630     Co1645   2.016       .  S
O1631      C1634   1.271       .  A
O1631     Co1648   1.976       .  S
O1632      C1633   1.273       .  A
O1632     Co1647   1.879       .  S
C1633      C4979   1.463       .  S
C1634      C3537   1.471       .  S
C1635      C4615   1.509       .  S
C1636      C2207   1.487       .  S
O1637      C1650   1.264       .  A
O1637     Co1645   1.968       .  S
O1638      C1651   1.250       .  A
O1638     Co1646   1.954       .  S
O1639      C1652   1.294       .  A
O1639     Co1647   2.120       .  S
O1640      C1653   1.261       .  A
O1640     Co1648   2.001       .  S
O1641      C1653   1.249       .  A
O1641     Co1646   1.937       .  S
O1642      C1652   1.261       .  A
O1642     Co1645   1.889       .  S
O1643      C1650   1.287       .  A
O1643     Co1648   2.073       .  S
O1644      C1651   1.264       .  A
O1644     Co1647   2.007       .  S
Co1645     O1649   1.983       .  S
Co1646     O1649   1.991       .  S
Co1647     O1649   2.019       .  S
Co1648     O1649   2.051       .  S
C1650      C1770   1.509       .  S
C1651      C1896   1.452       .  S
C1652      C1840   1.484       .  S
C1653      C1784   1.448       .  S
O1654      C1662   1.285       .  A
O1654     Co1674   2.044       .  S
O1655      C1663   1.270       .  A
O1655     Co1675   2.018       .  S
O1656      C1664   1.262       .  A
O1656     Co1676   2.002       .  S
O1657      C1665   1.256       .  A
O1657     Co1677   1.989       .  S
O1658      C1664   1.259       .  A
O1658     Co1675   1.995       .  S
O1659      C1665   1.246       .  A
O1659     Co1674   1.962       .  S
O1660      C1663   1.260       .  A
O1660     Co1677   1.970       .  S
O1661      C1662   1.271       .  A
O1661     Co1676   1.984       .  S
C1662      C4696   1.500       .  S
C1663      C2165   1.485       .  S
C1664      C1745   1.513       .  S
C1665      C1969   1.493       .  S
O1666      C1679   1.274       .  A
O1666     Co1674   1.884       .  S
O1667      C1680   1.306       .  A
O1667     Co1675   2.059       .  S
O1668      C1681   1.265       .  A
O1668     Co1676   2.040       .  S
O1669      C1682   1.271       .  A
O1669     Co1677   2.040       .  S
O1670      C1682   1.264       .  A
O1670     Co1675   1.986       .  S
O1671      C1681   1.253       .  A
O1671     Co1674   1.967       .  S
O1672      C1679   1.307       .  A
O1672     Co1677   2.118       .  S
O1673      C1680   1.285       .  A
O1673     Co1676   1.902       .  S
Co1674     O1678   1.973       .  S
Co1675     O1678   2.153       .  S
Co1676     O1678   1.953       .  S
Co1677     O1678   2.132       .  S
C1679      C1759   1.503       .  S
C1680      C1829   1.474       .  S
C1681      C1815   1.485       .  S
C1682      C1773   1.511       .  S
O1683      C1691   1.251       .  A
O1683     Co1703   1.988       .  S
O1684      C1692   1.278       .  A
O1684     Co1704   2.016       .  S
O1685      C1693   1.298       .  A
O1685     Co1705   2.084       .  S
O1686      C1694   1.267       .  A
O1686     Co1706   1.964       .  S
O1687      C1693   1.267       .  A
O1687     Co1704   1.993       .  S
O1688      C1694   1.280       .  A
O1688     Co1703   2.032       .  S
O1689      C1692   1.262       .  A
O1689     Co1706   1.923       .  S
O1690      C1691   1.281       .  A
O1690     Co1705   2.069       .  S
C1691      C1801   1.490       .  S
C1692      C1787   1.461       .  S
C1693      C1885   1.513       .  S
C1694      C1756   1.497       .  S
O1695      C1708   1.266       .  A
O1695     Co1703   2.010       .  S
O1696      C1709   1.272       .  A
O1696     Co1704   1.893       .  S
O1697      C1710   1.289       .  A
O1697     Co1705   1.968       .  S
O1698      C1711   1.262       .  A
O1698     Co1706   2.007       .  S
O1699      C1711   1.263       .  A
O1699     Co1704   1.988       .  S
O1700      C1710   1.287       .  A
O1700     Co1703   1.944       .  S
O1701      C1708   1.261       .  A
O1701     Co1706   1.987       .  S
O1702      C1709   1.303       .  A
O1702     Co1705   2.115       .  S
Co1703     O1707   1.994       .  S
Co1704     O1707   1.916       .  S
Co1705     O1707   2.047       .  S
Co1706     O1707   2.043       .  S
C1708      C1941   1.505       .  S
C1709      C4276   1.488       .  S
C1710      C5004   1.463       .  S
C1711      C3509   1.498       .  S
O1712      C1720   1.272       .  A
O1712     Co1732   1.990       .  S
O1713      C1721   1.275       .  A
O1713     Co1733   1.929       .  S
O1714      C1722   1.280       .  A
O1714     Co1734   2.035       .  S
O1715      C1723   1.279       .  A
O1715     Co1735   2.040   1_545  S
O1716      C1722   1.271       .  A
O1716     Co1733   1.978       .  S
O1717      C1723   1.274       .  A
O1717     Co1732   2.004       .  S
O1718      C1721   1.294       .  A
O1718     Co1735   2.107       .  S
O1719      C1720   1.273       .  A
O1719     Co1734   2.020   1_545  S
C1720      C3607   1.502       .  S
C1721      C2179   1.506       .  S
C1722      C2991   1.486       .  S
C1723      C1742   1.517       .  S
O1724      C1737   1.277       .  A
O1724     Co1732   2.008       .  S
O1725      C1738   1.278       .  A
O1725     Co1733   2.020       .  S
O1726      C1739   1.273       .  A
O1726     Co1734   1.999   1_545  S
O1727      C1740   1.276       .  A
O1727     Co1735   1.937       .  S
O1728      C1740   1.295       .  A
O1728     Co1733   2.111       .  S
O1729      C1739   1.277       .  A
O1729     Co1732   2.022       .  S
O1730      C1737   1.270       .  A
O1730     Co1735   1.986   1_545  S
O1731      C1738   1.269       .  A
O1731     Co1734   1.996       .  S
Co1732     O1736   2.023       .  S
Co1733     O1736   1.994   1_565  S
Co1734     O1736   2.047   1_565  S
Co1735     O1736   2.010   1_565  S
C1737      C1857   1.473       .  S
C1738      C3187   1.504       .  S
C1739      C3702   1.504       .  S
C1740      C2319   1.516       .  S
C1741      C1742   1.415       .  A
C1741      C1746   1.417       .  A
C1741      H1748   1.083       .  S
C1742      C1743   1.419       .  A
C1743      C1744   1.407       .  A
C1743      N1750   1.430       .  S
C1744      C1745   1.410       .  A
C1744      H1749   1.084       .  S
C1745      C1746   1.413       .  A
C1746      N1747   1.426       .  S
N1747      O1751   1.261       .  A
N1747      O1752   1.262       .  A
N1750      O1754   1.260       .  A
N1750      O1753   1.261       .  A
C1755      C1756   1.409       .  A
C1755      C1760   1.400       .  A
C1755      H1762   1.084       .  S
C1756      C1757   1.411       .  A
C1757      C1758   1.410       .  A
C1757      N1764   1.429       .  S
C1758      C1759   1.413       .  A
C1758      H1763   1.081       .  S
C1759      C1760   1.413       .  A
C1760      N1761   1.429       .  S
N1761      O1765   1.262       .  A
N1761      O1766   1.262       .  A
N1764      O1768   1.262       .  A
N1764      O1767   1.262       .  A
C1769      C1770   1.405       .  A
C1769      C1774   1.414       .  A
C1769      H1776   1.084       .  S
C1770      C1771   1.419       .  A
C1771      C1772   1.409       .  A
C1771      N1778   1.427       .  S
C1772      C1773   1.404       .  A
C1772      H1777   1.084       .  S
C1773      C1774   1.422       .  A
C1774      N1775   1.427       .  S
N1775      O1779   1.261       .  A
N1775      O1780   1.262       .  A
N1778      O1782   1.262       .  A
N1778      O1781   1.261       .  A
C1783      C1784   1.407       .  A
C1783      C1788   1.393       .  A
C1783      H1790   1.084       .  S
C1784      C1785   1.398       .  A
C1785      C1786   1.389       .  A
C1785      N1792   1.429       .  S
C1786      C1787   1.409       .  A
C1786      H1791   1.084       .  S
C1787      C1788   1.398       .  A
C1788      N1789   1.429       .  S
N1789      O1793   1.262       .  A
N1789      O1794   1.260       .  A
N1792      O1796   1.262       .  A
N1792      O1795   1.262       .  A
C1797      C1798   1.411       .  A
C1797      C1802   1.412       .  A
C1797      H1804   1.084       .  S
C1798      C1799   1.416       .  A
C1799      C1800   1.405       .  A
C1799      N1806   1.429       .  S
C1800      C1801   1.401       .  A
C1800      H1805   1.082       .  S
C1801      C1802   1.410       .  A
C1802      N1803   1.427       .  S
N1803      O1807   1.262       .  A
N1803      O1808   1.262       .  A
N1806      O1810   1.262       .  A
N1806      O1809   1.262       .  A
C1811      C1812   1.398       .  A
C1811      C1816   1.407       .  A
C1811      H1818   1.084       .  S
C1812      C1813   1.412       .  A
C1813      C1814   1.391       .  A
C1813      N1820   1.430       .  S
C1814      C1815   1.400       .  A
C1814      H1819   1.079       .  S
C1815      C1816   1.417       .  A
C1816      N1817   1.423       .  S
N1817      O1821   1.262       .  A
N1817      O1822   1.261       .  A
N1820      O1824   1.262       .  A
N1820      O1823   1.261       .  A
C1825      C1826   1.406       .  A
C1825      C1830   1.396       .  A
C1825      H1832   1.084       .  S
C1826      C1827   1.409       .  A
C1827      C1828   1.392       .  A
C1827      N1834   1.430       .  S
C1828      C1829   1.407       .  A
C1828      H1833   1.084       .  S
C1829      C1830   1.408       .  A
C1830      N1831   1.428       .  S
N1831      O1835   1.262       .  A
N1831      O1836   1.262       .  A
N1834      O1838   1.261       .  A
N1834      O1837   1.262       .  A
C1839      C1840   1.409       .  A
C1839      C1844   1.405       .  A
C1839      H1846   1.084       .  S
C1840      C1841   1.412       .  A
C1841      C1842   1.396       .  A
C1841      N1848   1.432       .  S
C1842      C1843   1.411       .  A
C1842      H1847   1.084       .  S
C1843      C1844   1.401       .  A
C1844      N1845   1.422       .  S
N1845      O1849   1.262       .  A
N1845      O1850   1.261       .  A
N1848      O1852   1.262       .  A
N1848      O1851   1.262       .  A
C1853      C1854   1.404       .  A
C1853      C1858   1.409       .  A
C1853      H1860   1.083       .  S
C1854      C1855   1.419       .  A
C1855      C1856   1.388       .  A
C1855      N1862   1.432       .  S
C1856      C1857   1.394       .  A
C1856      H1861   1.081       .  S
C1857      C1858   1.411       .  A
C1858      N1859   1.427       .  S
N1859      O1863   1.261       .  A
N1859      O1864   1.262       .  A
N1862      O1866   1.262       .  A
N1862      O1865   1.262       .  A
C1867      C1868   1.415       .  A
C1867      C1872   1.405       .  A
C1867      H1874   1.084       .  S
C1868      C1869   1.409       .  A
C1869      C1870   1.407       .  A
C1869      N1876   1.426       .  S
C1870      C1871   1.407       .  A
C1870      H1875   1.084       .  S
C1871      C1872   1.400       .  A
C1872      N1873   1.428       .  S
N1873      O1877   1.262       .  A
N1873      O1878   1.262       .  A
N1876      O1880   1.262       .  A
N1876      O1879   1.260       .  A
C1881      C1882   1.407       .  A
C1881      C1886   1.411       .  A
C1881      H1888   1.084       .  S
C1882      C1883   1.417       .  A
C1883      C1884   1.412       .  A
C1883      N1890   1.428       .  S
C1884      C1885   1.411       .  A
C1884      H1889   1.083       .  S
C1885      C1886   1.420       .  A
C1886      N1887   1.431       .  S
N1887      O1891   1.262       .  A
N1887      O1892   1.262       .  A
N1890      O1894   1.262       .  A
N1890      O1893   1.262       .  A
C1895      C1896   1.397       .  A
C1895      C1900   1.396       .  A
C1895      H1902   1.085       .  S
C1896      C1897   1.406       .  A
C1897      C1898   1.388       .  A
C1897      N1904   1.426       .  S
C1898      C1899   1.399       .  A
C1898      H1903   1.085       .  S
C1899      C1900   1.414       .  A
C1900      N1901   1.428       .  S
N1901      O1905   1.262       .  A
N1901      O1906   1.261       .  A
N1904      O1908   1.261       .  A
N1904      O1907   1.260       .  A
C1909      C1910   1.402       .  A
C1909      C1914   1.401       .  A
C1909      H1916   1.084       .  S
C1910      C1911   1.399       .  A
C1911      C1912   1.396       .  A
C1911      N1918   1.429       .  S
C1912      C1913   1.414       .  A
C1912      H1917   1.084       .  S
C1913      C1914   1.412       .  A
C1914      N1915   1.432       .  S
N1915      O1919   1.260       .  A
N1915      O1920   1.262       .  A
N1918      O1922   1.261       .  A
N1918      O1921   1.262       .  A
C1923      C1924   1.413       .  A
C1923      C1928   1.423       .  A
C1923      H1930   1.083       .  S
C1924      C1925   1.414       .  A
C1925      C1926   1.406       .  A
C1925      N1932   1.430       .  S
C1926      C1927   1.411       .  A
C1926      H1931   1.084       .  S
C1927      C1928   1.417       .  A
C1928      N1929   1.427       .  S
N1929      O1933   1.261       .  A
N1929      O1934   1.261       .  A
N1932      O1936   1.262       .  A
N1932      O1935   1.262       .  A
C1937      C1938   1.408       .  A
C1937      C1942   1.408   1_455  A
C1937      H1944   1.084       .  S
C1938      C1939   1.405       .  A
C1939      C1940   1.407   1_455  A
C1939      N1946   1.428       .  S
C1940      C1941   1.415       .  A
C1940      H1945   1.083       .  S
C1941      C1942   1.414       .  A
C1942      N1943   1.428       .  S
N1943      O1947   1.261       .  A
N1943      O1948   1.262       .  A
N1946      O1950   1.262       .  A
N1946      O1949   1.262       .  A
C1951      C1952   1.403       .  A
C1951      C1956   1.405       .  A
C1951      H1958   1.078       .  S
C1952      C1953   1.409       .  A
C1953      C1954   1.398       .  A
C1953      N1960   1.431       .  S
C1954      C1955   1.411       .  A
C1954      H1959   1.084       .  S
C1955      C1956   1.411       .  A
C1956      N1957   1.426       .  S
N1957      O1961   1.262       .  A
N1957      O1962   1.262       .  A
N1960      O1964   1.260       .  A
N1960      O1963   1.260       .  A
C1965      C1966   1.397       .  A
C1965      C1970   1.401   1_455  A
C1965      H1972   1.083       .  S
C1966      C1967   1.416       .  A
C1967      C1968   1.402   1_455  A
C1967      N1974   1.428       .  S
C1968      C1969   1.402       .  A
C1968      H1973   1.084       .  S
C1969      C1970   1.421       .  A
C1970      N1971   1.426       .  S
N1971      O1975   1.261       .  A
N1971      O1976   1.262       .  A
N1974      O1978   1.262       .  A
N1974      O1977   1.261       .  A
C1979      C1980   1.404       .  A
C1979      C1984   1.413       .  A
C1979      H1986   1.081       .  S
C1980      C1981   1.414       .  A
C1981      C1982   1.401       .  A
C1981      N1988   1.429       .  S
C1982      C1983   1.401       .  A
C1982      H1987   1.082       .  S
C1983      C1984   1.421       .  A
C1984      N1985   1.430       .  S
N1985      O1989   1.261       .  A
N1985      O1990   1.262       .  A
N1988      O1992   1.262       .  A
N1988      O1991   1.261       .  A
C1993      C1994   1.410       .  A
C1993      C1998   1.407       .  A
C1993      H2000   1.084       .  S
C1994      C1995   1.406       .  A
C1995      C1996   1.408       .  A
C1995      N2002   1.427       .  S
C1996      C1997   1.412       .  A
C1996      H2001   1.084       .  S
C1997      C1998   1.407       .  A
C1998      N1999   1.425       .  S
N1999      O2003   1.261       .  A
N1999      O2004   1.262       .  A
N2002      O2006   1.262       .  A
N2002      O2005   1.261       .  A
C2007      C2008   1.411       .  A
C2007      C2012   1.402       .  A
C2007      H2014   1.084       .  S
C2008      C2009   1.415       .  A
C2009      C2010   1.403       .  A
C2009      N2016   1.430       .  S
C2010      C2011   1.400       .  A
C2010      H2015   1.078       .  S
C2011      C2012   1.402       .  A
C2012      N2013   1.424       .  S
N2013      O2017   1.262       .  A
N2013      O2018   1.262       .  A
N2016      O2020   1.262       .  A
N2016      O2019   1.261       .  A
C2021      C2022   1.408       .  A
C2021      C2026   1.410       .  A
C2021      H2028   1.083       .  S
C2022      C2023   1.429       .  A
C2023      C2024   1.402       .  A
C2023      N2030   1.434       .  S
C2024      C2025   1.393       .  A
C2024      H2029   1.085       .  S
C2025      C2026   1.415       .  A
C2026      N2027   1.430       .  S
N2027      O2031   1.262       .  A
N2027      O2032   1.260       .  A
N2030      O2034   1.262       .  A
N2030      O2033   1.263       .  A
C2035      C2036   1.404       .  A
C2035      C2040   1.411       .  A
C2035      H2042   1.082       .  S
C2036      C2037   1.421       .  A
C2037      C2038   1.404       .  A
C2037      N2044   1.432       .  S
C2038      C2039   1.402       .  A
C2038      H2043   1.082       .  S
C2039      C2040   1.421       .  A
C2040      N2041   1.429       .  S
N2041      O2045   1.259       .  A
N2041      O2046   1.261       .  A
N2044      O2048   1.262       .  A
N2044      O2047   1.262       .  A
C2049      C2050   1.406       .  A
C2049      C2054   1.407       .  A
C2049      H2056   1.084       .  S
C2050      C2051   1.417       .  A
C2051      C2052   1.404       .  A
C2051      N2058   1.428       .  S
C2052      C2053   1.405       .  A
C2052      H2057   1.084       .  S
C2053      C2054   1.420       .  A
C2054      N2055   1.430       .  S
N2055      O2059   1.261       .  A
N2055      O2060   1.262       .  A
N2058      O2062   1.262       .  A
N2058      O2061   1.262       .  A
C2063      C2064   1.409       .  A
C2063      C2068   1.390       .  A
C2063      H2070   1.082       .  S
C2064      C2065   1.409       .  A
C2065      C2066   1.404       .  A
C2065      N2072   1.428       .  S
C2066      C2067   1.407       .  A
C2066      H2071   1.084       .  S
C2067      C2068   1.399       .  A
C2068      N2069   1.427       .  S
N2069      O2073   1.262       .  A
N2069      O2074   1.262       .  A
N2072      O2076   1.262       .  A
N2072      O2075   1.262       .  A
C2077      C2078   1.408       .  A
C2077      C2082   1.399       .  A
C2077      H2084   1.084       .  S
C2078      C2079   1.408       .  A
C2079      C2080   1.391       .  A
C2079      N2086   1.428       .  S
C2080      C2081   1.404       .  A
C2080      H2085   1.084       .  S
C2081      C2082   1.404       .  A
C2082      N2083   1.424       .  S
N2083      O2087   1.262       .  A
N2083      O2088   1.260       .  A
N2086      O2090   1.262       .  A
N2086      O2089   1.262       .  A
C2091      C2092   1.401       .  A
C2091      C2096   1.405       .  A
C2091      H2098   1.084       .  S
C2092      C2093   1.416       .  A
C2093      C2094   1.393       .  A
C2093      N2100   1.431       .  S
C2094      C2095   1.398       .  A
C2094      H2099   1.085       .  S
C2095      C2096   1.415       .  A
C2096      N2097   1.428       .  S
N2097      O2101   1.261       .  A
N2097      O2102   1.262       .  A
N2100      O2104   1.261       .  A
N2100      O2103   1.262       .  A
C2105      C2106   1.408       .  A
C2105      C2110   1.403       .  A
C2105      H2112   1.084       .  S
C2106      C2107   1.415       .  A
C2107      C2108   1.404       .  A
C2107      N2114   1.428       .  S
C2108      C2109   1.405       .  A
C2108      H2113   1.083       .  S
C2109      C2110   1.407       .  A
C2110      N2111   1.424       .  S
N2111      O2115   1.259       .  A
N2111      O2116   1.261       .  A
N2114      O2118   1.262       .  A
N2114      O2117   1.262       .  A
C2119      C2120   1.405       .  A
C2119      C2124   1.394       .  A
C2119      H2126   1.084       .  S
C2120      C2121   1.409       .  A
C2121      C2122   1.398       .  A
C2121      N2128   1.429       .  S
C2122      C2123   1.401       .  A
C2122      H2127   1.085       .  S
C2123      C2124   1.407       .  A
C2124      N2125   1.432       .  S
N2125      O2129   1.261       .  A
N2125      O2130   1.262       .  A
N2128      O2132   1.262       .  A
N2128      O2131   1.262       .  A
C2133      C2134   1.402       .  A
C2133      C2138   1.402       .  A
C2133      H2140   1.084       .  S
C2134      C2135   1.418       .  A
C2135      C2136   1.403       .  A
C2135      N2142   1.430       .  S
C2136      C2137   1.400       .  A
C2136      H2141   1.082       .  S
C2137      C2138   1.415       .  A
C2138      N2139   1.429       .  S
N2139      O2143   1.261       .  A
N2139      O2144   1.262       .  A
N2142      O2146   1.262       .  A
N2142      O2145   1.262       .  A
C2147      C2148   1.408       .  A
C2147      C2152   1.404       .  A
C2147      H2154   1.083       .  S
C2148      C2149   1.420       .  A
C2149      C2150   1.419       .  A
C2149      N2156   1.424       .  S
C2150      C2151   1.406       .  A
C2150      H2155   1.084       .  S
C2151      C2152   1.413       .  A
C2152      N2153   1.426       .  S
N2153      O2157   1.261       .  A
N2153      O2158   1.262       .  A
N2156      O2160   1.262       .  A
N2156      O2159   1.261       .  A
C2161      C2162   1.404       .  A
C2161      C2166   1.400   1_565  A
C2161      H2168   1.084       .  S
C2162      C2163   1.415       .  A
C2163      C2164   1.405   1_565  A
C2163      N2170   1.427       .  S
C2164      C2165   1.402       .  A
C2164      H2169   1.082       .  S
C2165      C2166   1.412       .  A
C2166      N2167   1.429       .  S
N2167      O2171   1.262       .  A
N2167      O2172   1.262       .  A
N2170      O2174   1.261       .  A
N2170      O2173   1.262       .  A
C2175      C2176   1.407       .  A
C2175      C2180   1.411       .  A
C2175      H2182   1.084       .  S
C2176      C2177   1.408       .  A
C2177      C2178   1.401       .  A
C2177      N2184   1.429       .  S
C2178      C2179   1.408       .  A
C2178      H2183   1.077       .  S
C2179      C2180   1.415       .  A
C2180      N2181   1.423       .  S
N2181      O2185   1.262       .  A
N2181      O2186   1.262       .  A
N2184      O2188   1.262       .  A
N2184      O2187   1.262       .  A
C2189      C2190   1.401       .  A
C2189      C2194   1.406       .  A
C2189      H2196   1.084       .  S
C2190      C2191   1.408       .  A
C2191      C2192   1.391       .  A
C2191      N2198   1.429       .  S
C2192      C2193   1.401       .  A
C2192      H2197   1.085       .  S
C2193      C2194   1.416       .  A
C2194      N2195   1.429       .  S
N2195      O2199   1.262       .  A
N2195      O2200   1.261       .  A
N2198      O2202   1.259       .  A
N2198      O2201   1.262       .  A
C2203      C2204   1.405       .  A
C2203      C2208   1.406   1_565  A
C2203      H2210   1.081       .  S
C2204      C2205   1.415       .  A
C2205      C2206   1.394   1_565  A
C2205      N2212   1.430       .  S
C2206      C2207   1.404       .  A
C2206      H2211   1.084       .  S
C2207      C2208   1.414       .  A
C2208      N2209   1.428       .  S
N2209      O2213   1.262       .  A
N2209      O2214   1.262       .  A
N2212      O2216   1.262       .  A
N2212      O2215   1.262       .  A
C2217      C2218   1.405       .  A
C2217      C2222   1.398       .  A
C2217      H2224   1.085       .  S
C2218      C2219   1.405       .  A
C2219      C2220   1.404       .  A
C2219      N2226   1.426       .  S
C2220      C2221   1.409       .  A
C2220      H2225   1.084       .  S
C2221      C2222   1.414       .  A
C2222      N2223   1.431       .  S
N2223      O2227   1.262       .  A
N2223      O2228   1.262       .  A
N2226      O2230   1.261       .  A
N2226      O2229   1.261       .  A
C2231      C2232   1.403       .  A
C2231      C2236   1.410       .  A
C2231      H2238   1.084       .  S
C2232      C2233   1.418       .  A
C2233      C2234   1.412       .  A
C2233      N2240   1.427       .  S
C2234      C2235   1.402       .  A
C2234      H2239   1.080       .  S
C2235      C2236   1.421       .  A
C2236      N2237   1.430       .  S
N2237      O2241   1.259       .  A
N2237      O2242   1.261       .  A
N2240      O2244   1.261       .  A
N2240      O2243   1.261       .  A
C2245      C2246   1.408       .  A
C2245      C2250   1.407       .  A
C2245      H2252   1.084       .  S
C2246      C2247   1.417       .  A
C2247      C2248   1.408       .  A
C2247      N2254   1.427       .  S
C2248      C2249   1.404       .  A
C2248      H2253   1.084       .  S
C2249      C2250   1.416       .  A
C2250      N2251   1.429       .  S
N2251      O2255   1.262       .  A
N2251      O2256   1.262       .  A
N2254      O2258   1.262       .  A
N2254      O2257   1.262       .  A
C2259      C2260   1.409       .  A
C2259      C2264   1.393       .  A
C2259      H2266   1.082       .  S
C2260      C2261   1.418       .  A
C2261      C2262   1.386       .  A
C2261      N2268   1.432       .  S
C2262      C2263   1.399       .  A
C2262      H2267   1.084       .  S
C2263      C2264   1.405       .  A
C2264      N2265   1.431       .  S
N2265      O2269   1.262       .  A
N2265      O2270   1.262       .  A
N2268      O2272   1.257       .  A
N2268      O2271   1.264       .  A
C2273      C2274   1.399       .  A
C2273      C2278   1.395       .  A
C2273      H2280   1.084       .  S
C2274      C2275   1.418       .  A
C2275      C2276   1.406       .  A
C2275      N2282   1.433       .  S
C2276      C2277   1.397       .  A
C2276      H2281   1.077       .  S
C2277      C2278   1.408       .  A
C2278      N2279   1.425       .  S
N2279      O2283   1.261       .  A
N2279      O2284   1.262       .  A
N2282      O2286   1.261       .  A
N2282      O2285   1.261       .  A
C2287      C2288   1.396       .  A
C2287      C2292   1.387       .  A
C2287      H2294   1.085       .  S
C2288      C2289   1.409       .  A
C2289      C2290   1.404       .  A
C2289      N2296   1.425       .  S
C2290      C2291   1.404       .  A
C2290      H2295   1.084       .  S
C2291      C2292   1.414       .  A
C2292      N2293   1.428       .  S
N2293      O2297   1.262       .  A
N2293      O2298   1.261       .  A
N2296      O2300   1.261       .  A
N2296      O2299   1.261       .  A
C2301      C2302   1.406       .  A
C2301      C2306   1.399       .  A
C2301      H2308   1.081       .  S
C2302      C2303   1.406       .  A
C2303      C2304   1.408       .  A
C2303      N2310   1.428       .  S
C2304      C2305   1.415       .  A
C2304      H2309   1.082       .  S
C2305      C2306   1.413       .  A
C2306      N2307   1.428       .  S
N2307      O2311   1.262       .  A
N2307      O2312   1.262       .  A
N2310      O2314   1.262       .  A
N2310      O2313   1.262       .  A
C2315      C2316   1.413       .  A
C2315      C2320   1.420       .  A
C2315      H2322   1.083       .  S
C2316      C2317   1.406       .  A
C2317      C2318   1.405       .  A
C2317      N2324   1.427       .  S
C2318      C2319   1.414       .  A
C2318      H2323   1.081       .  S
C2319      C2320   1.419       .  A
C2320      N2321   1.430       .  S
N2321      O2325   1.262       .  A
N2321      O2326   1.261       .  A
N2324      O2328   1.261       .  A
N2324      O2327   1.262       .  A
C2329      C2330   1.393       .  A
C2329      C2334   1.401       .  A
C2329      H2336   1.084       .  S
C2330      C2331   1.430       .  A
C2331      C2332   1.414       .  A
C2331      N2338   1.429       .  S
C2332      C2333   1.400       .  A
C2332      H2337   1.084       .  S
C2333      C2334   1.413       .  A
C2334      N2335   1.413       .  S
N2335      O2339   1.262       .  A
N2335      O2340   1.256       .  A
N2338      O2342   1.261       .  A
N2338      O2341   1.262       .  A
C2343      C2344   1.402       .  A
C2343      C2348   1.402       .  A
C2343      H2350   1.084       .  S
C2344      C2345   1.418       .  A
C2345      C2346   1.402       .  A
C2345      N2352   1.430       .  S
C2346      C2347   1.402       .  A
C2346      H2351   1.083       .  S
C2347      C2348   1.419       .  A
C2348      N2349   1.429       .  S
N2349      O2353   1.262       .  A
N2349      O2354   1.262       .  A
N2352      O2356   1.262       .  A
N2352      O2355   1.262       .  A
C2357      C2358   1.398       .  A
C2357      C2362   1.401       .  A
C2357      H2364   1.085       .  S
C2358      C2359   1.404       .  A
C2359      C2360   1.394       .  A
C2359      N2366   1.428       .  S
C2360      C2361   1.407       .  A
C2360      H2365   1.084       .  S
C2361      C2362   1.417       .  A
C2362      N2363   1.426       .  S
N2363      O2367   1.258       .  A
N2363      O2368   1.261       .  A
N2366      O2370   1.262       .  A
N2366      O2369   1.262       .  A
C2371      C2372   1.399       .  A
C2371      C2376   1.393       .  A
C2371      H2378   1.085       .  S
C2372      C2373   1.408       .  A
C2373      C2374   1.402       .  A
C2373      N2380   1.429       .  S
C2374      C2375   1.409       .  A
C2374      H2379   1.084       .  S
C2375      C2376   1.416       .  A
C2376      N2377   1.429       .  S
N2377      O2381   1.261       .  A
N2377      O2382   1.262       .  A
N2380      O2384   1.262       .  A
N2380      O2383   1.262       .  A
C2385      C2386   1.404       .  A
C2385      C2390   1.400       .  A
C2385      H2392   1.084       .  S
C2386      C2387   1.421       .  A
C2387      C2388   1.417       .  A
C2387      N2394   1.428       .  S
C2388      C2389   1.403       .  A
C2388      H2393   1.083       .  S
C2389      C2390   1.415       .  A
C2390      N2391   1.431       .  S
N2391      O2395   1.261       .  A
N2391      O2396   1.261       .  A
N2394      O2398   1.262       .  A
N2394      O2397   1.261       .  A
C2399      C2400   1.403       .  A
C2399      C2404   1.390       .  A
C2399      H2406   1.085       .  S
C2400      C2401   1.412       .  A
C2401      C2402   1.405       .  A
C2401      N2408   1.428       .  S
C2402      C2403   1.404       .  A
C2402      H2407   1.084       .  S
C2403      C2404   1.410       .  A
C2404      N2405   1.430       .  S
N2405      O2409   1.262       .  A
N2405      O2410   1.262       .  A
N2408      O2412   1.262       .  A
N2408      O2411   1.261       .  A
C2413      C2414   1.414       .  A
C2413      C2418   1.404   1_545  A
C2413      H2420   1.082       .  S
C2414      C2415   1.410       .  A
C2415      C2416   1.408   1_545  A
C2415      N2422   1.429       .  S
C2416      C2417   1.416       .  A
C2416      H2421   1.083       .  S
C2417      C2418   1.408       .  A
C2418      N2419   1.428       .  S
N2419      O2423   1.262       .  A
N2419      O2424   1.262       .  A
N2422      O2426   1.262       .  A
N2422      O2425   1.262       .  A
C2427      C2428   1.399       .  A
C2427      C2432   1.404   1_565  A
C2427      H2434   1.084       .  S
C2428      C2429   1.425       .  A
C2429      C2430   1.406   1_565  A
C2429      N2436   1.428       .  S
C2430      C2431   1.400       .  A
C2430      H2435   1.083       .  S
C2431      C2432   1.423       .  A
C2432      N2433   1.426       .  S
N2433      O2437   1.261       .  A
N2433      O2438   1.262       .  A
N2436      O2440   1.262       .  A
N2436      O2439   1.262       .  A
C2441      C2442   1.413       .  A
C2441      C2446   1.410   1_455  A
C2441      H2448   1.083       .  S
C2442      C2443   1.419       .  A
C2443      C2444   1.404   1_455  A
C2443      N2450   1.431       .  S
C2444      C2445   1.407       .  A
C2444      H2449   1.084       .  S
C2445      C2446   1.411       .  A
C2446      N2447   1.428       .  S
N2447      O2451   1.262       .  A
N2447      O2452   1.262       .  A
N2450      O2454   1.261       .  A
N2450      O2453   1.260       .  A
C2455      C2456   1.407       .  A
C2455      C2460   1.408       .  A
C2455      H2462   1.084       .  S
C2456      C2457   1.408       .  A
C2457      C2458   1.405       .  A
C2457      N2464   1.430       .  S
C2458      C2459   1.413       .  A
C2458      H2463   1.084       .  S
C2459      C2460   1.412       .  A
C2460      N2461   1.431       .  S
N2461      O2465   1.262       .  A
N2461      O2466   1.261       .  A
N2464      O2468   1.262       .  A
N2464      O2467   1.262       .  A
C2469      C2470   1.405       .  A
C2469      C2474   1.398   1_455  A
C2469      H2476   1.084       .  S
C2470      C2471   1.414       .  A
C2471      C2472   1.400   1_455  A
C2471      N2478   1.429       .  S
C2472      C2473   1.404       .  A
C2472      H2477   1.084       .  S
C2473      C2474   1.410       .  A
C2474      N2475   1.429       .  S
N2475      O2479   1.262       .  A
N2475      O2480   1.262       .  A
N2478      O2482   1.262       .  A
N2478      O2481   1.262       .  A
C2483      C2484   1.401       .  A
C2483      C2488   1.385       .  A
C2483      H2490   1.084       .  S
C2484      C2485   1.411       .  A
C2485      C2486   1.402       .  A
C2485      N2492   1.429       .  S
C2486      C2487   1.407       .  A
C2486      H2491   1.083       .  S
C2487      C2488   1.415       .  A
C2488      N2489   1.431       .  S
N2489      O2493   1.262       .  A
N2489      O2494   1.262       .  A
N2492      O2496   1.261       .  A
N2492      O2495   1.262       .  A
C2497      C2498   1.403       .  A
C2497      C2502   1.411       .  A
C2497      H2504   1.083       .  S
C2498      C2499   1.416       .  A
C2499      C2500   1.397       .  A
C2499      N2506   1.430       .  S
C2500      C2501   1.402       .  A
C2500      H2505   1.085       .  S
C2501      C2502   1.415       .  A
C2502      N2503   1.427       .  S
N2503      O2507   1.261       .  A
N2503      O2508   1.260       .  A
N2506      O2510   1.262       .  A
N2506      O2509   1.262       .  A
C2511      C2512   1.406       .  A
C2511      C2516   1.404       .  A
C2511      H2518   1.084       .  S
C2512      C2513   1.421       .  A
C2513      C2514   1.414       .  A
C2513      N2520   1.426       .  S
C2514      C2515   1.403       .  A
C2514      H2519   1.084       .  S
C2515      C2516   1.414       .  A
C2516      N2517   1.427       .  S
N2517      O2521   1.262       .  A
N2517      O2522   1.261       .  A
N2520      O2524   1.262       .  A
N2520      O2523   1.261       .  A
C2525      C2526   1.404       .  A
C2525      C2530   1.405       .  A
C2525      H2532   1.085       .  S
C2526      C2527   1.412       .  A
C2527      C2528   1.408       .  A
C2527      N2534   1.430       .  S
C2528      C2529   1.408       .  A
C2528      H2533   1.081       .  S
C2529      C2530   1.422       .  A
C2530      N2531   1.434       .  S
N2531      O2535   1.262       .  A
N2531      O2536   1.262       .  A
N2534      O2538   1.262       .  A
N2534      O2537   1.262       .  A
C2539      C2540   1.395       .  A
C2539      C2544   1.403       .  A
C2539      H2546   1.084       .  S
C2540      C2541   1.420       .  A
C2541      C2542   1.405       .  A
C2541      N2548   1.427       .  S
C2542      C2543   1.400       .  A
C2542      H2547   1.084       .  S
C2543      C2544   1.417       .  A
C2544      N2545   1.423       .  S
N2545      O2549   1.261       .  A
N2545      O2550   1.261       .  A
N2548      O2552   1.261       .  A
N2548      O2551   1.260       .  A
C2553      C2554   1.406       .  A
C2553      C2558   1.402       .  A
C2553      H2560   1.084       .  S
C2554      C2555   1.414       .  A
C2555      C2556   1.399       .  A
C2555      N2562   1.429       .  S
C2556      C2557   1.406       .  A
C2556      H2561   1.084       .  S
C2557      C2558   1.414       .  A
C2558      N2559   1.428       .  S
N2559      O2563   1.262       .  A
N2559      O2564   1.262       .  A
N2562      O2566   1.262       .  A
N2562      O2565   1.262       .  A
C2567      C2568   1.411       .  A
C2567      C2572   1.403       .  A
C2567      H2574   1.084       .  S
C2568      C2569   1.411       .  A
C2569      C2570   1.392       .  A
C2569      N2576   1.427       .  S
C2570      C2571   1.404       .  A
C2570      H2575   1.082       .  S
C2571      C2572   1.409       .  A
C2572      N2573   1.428       .  S
N2573      O2577   1.262       .  A
N2573      O2578   1.262       .  A
N2576      O2580   1.261       .  A
N2576      O2579   1.262       .  A
C2581      C2582   1.395       .  A
C2581      C2586   1.392       .  A
C2581      H2588   1.085       .  S
C2582      C2583   1.418       .  A
C2583      C2584   1.404       .  A
C2583      N2590   1.430       .  S
C2584      C2585   1.400       .  A
C2584      H2589   1.084       .  S
C2585      C2586   1.412       .  A
C2586      N2587   1.425       .  S
N2587      O2591   1.261       .  A
N2587      O2592   1.262       .  A
N2590      O2594   1.262       .  A
N2590      O2593   1.262       .  A
C2595      C2596   1.397       .  A
C2595      C2600   1.387       .  A
C2595      H2602   1.080       .  S
C2596      C2597   1.417       .  A
C2597      C2598   1.395       .  A
C2597      N2604   1.428       .  S
C2598      C2599   1.397       .  A
C2598      H2603   1.084       .  S
C2599      C2600   1.412       .  A
C2600      N2601   1.428       .  S
N2601      O2605   1.261       .  A
N2601      O2606   1.262       .  A
N2604      O2608   1.261       .  A
N2604      O2607   1.262       .  A
C2609      C2610   1.410       .  A
C2609      C2614   1.424       .  A
C2609      H2616   1.083       .  S
C2610      C2611   1.415       .  A
C2611      C2612   1.396       .  A
C2611      N2618   1.431       .  S
C2612      C2613   1.403       .  A
C2612      H2617   1.085       .  S
C2613      C2614   1.420       .  A
C2614      N2615   1.428       .  S
N2615      O2619   1.261       .  A
N2615      O2620   1.262       .  A
N2618      O2622   1.260       .  A
N2618      O2621   1.261       .  A
C2623      C2624   1.404       .  A
C2623      C2628   1.409       .  A
C2623      H2630   1.084       .  S
C2624      C2625   1.417       .  A
C2625      C2626   1.409       .  A
C2625      N2632   1.428       .  S
C2626      C2627   1.406       .  A
C2626      H2631   1.084       .  S
C2627      C2628   1.423       .  A
C2628      N2629   1.429       .  S
N2629      O2633   1.261       .  A
N2629      O2634   1.262       .  A
N2632      O2636   1.262       .  A
N2632      O2635   1.262       .  A
C2637      C2638   1.404       .  A
C2637      C2642   1.409       .  A
C2637      H2644   1.083       .  S
C2638      C2639   1.426       .  A
C2639      C2640   1.397       .  A
C2639      N2646   1.429       .  S
C2640      C2641   1.392       .  A
C2640      H2645   1.083       .  S
C2641      C2642   1.414       .  A
C2642      N2643   1.427       .  S
N2643      O2647   1.262       .  A
N2643      O2648   1.262       .  A
N2646      O2650   1.262       .  A
N2646      O2649   1.262       .  A
C2651      C2652   1.416       .  A
C2651      C2656   1.413       .  A
C2651      H2658   1.084       .  S
C2652      C2653   1.413       .  A
C2653      C2654   1.411       .  A
C2653      N2660   1.428       .  S
C2654      C2655   1.409       .  A
C2654      H2659   1.082       .  S
C2655      C2656   1.407       .  A
C2656      N2657   1.428       .  S
N2657      O2661   1.262       .  A
N2657      O2662   1.262       .  A
N2660      O2664   1.262       .  A
N2660      O2663   1.262       .  A
C2665      C2666   1.403       .  A
C2665      C2670   1.410       .  A
C2665      H2672   1.084       .  S
C2666      C2667   1.422       .  A
C2667      C2668   1.408       .  A
C2667      N2674   1.429       .  S
C2668      C2669   1.404       .  A
C2668      H2673   1.084       .  S
C2669      C2670   1.420       .  A
C2670      N2671   1.425       .  S
N2671      O2675   1.261       .  A
N2671      O2676   1.262       .  A
N2674      O2678   1.262       .  A
N2674      O2677   1.262       .  A
C2679      C2680   1.399       .  A
C2679      C2684   1.396       .  A
C2679      H2686   1.085       .  S
C2680      C2681   1.413       .  A
C2681      C2682   1.403       .  A
C2681      N2688   1.426       .  S
C2682      C2683   1.400       .  A
C2682      H2687   1.084       .  S
C2683      C2684   1.416       .  A
C2684      N2685   1.430       .  S
N2685      O2689   1.260       .  A
N2685      O2690   1.261       .  A
N2688      O2692   1.260       .  A
N2688      O2691   1.261       .  A
C2693      C2694   1.405       .  A
C2693      C2698   1.404   1_556  A
C2693      H2700   1.084       .  S
C2694      C2695   1.409       .  A
C2695      C2696   1.387   1_556  A
C2695      N2702   1.430       .  S
C2696      C2697   1.398       .  A
C2696      H2701   1.082       .  S
C2697      C2698   1.409       .  A
C2698      N2699   1.428       .  S
N2699      O2703   1.262       .  A
N2699      O2704   1.262       .  A
N2702      O2706   1.262       .  A
N2702      O2705   1.262       .  A
C2707      C2708   1.409       .  A
C2707      C2712   1.409   1_556  A
C2707      H2714   1.084       .  S
C2708      C2709   1.417       .  A
C2709      C2710   1.409   1_556  A
C2709      N2716   1.429       .  S
C2710      C2711   1.410       .  A
C2710      H2715   1.084       .  S
C2711      C2712   1.417       .  A
C2712      N2713   1.428       .  S
N2713      O2717   1.262       .  A
N2713      O2718   1.262       .  A
N2716      O2720   1.262       .  A
N2716      O2719   1.262       .  A
C2721      C2722   1.403       .  A
C2721      C2726   1.399       .  A
C2721      H2728   1.084       .  S
C2722      C2723   1.415       .  A
C2723      C2724   1.411       .  A
C2723      N2730   1.428       .  S
C2724      C2725   1.409       .  A
C2724      H2729   1.083       .  S
C2725      C2726   1.418       .  A
C2726      N2727   1.429       .  S
N2727      O2731   1.262       .  A
N2727      O2732   1.261       .  A
N2730      O2734   1.262       .  A
N2730      O2733   1.262       .  A
C2735      C2736   1.407       .  A
C2735      C2740   1.409       .  A
C2735      H2742   1.084       .  S
C2736      C2737   1.414       .  A
C2737      C2738   1.397       .  A
C2737      N2744   1.431       .  S
C2738      C2739   1.403       .  A
C2738      H2743   1.083       .  S
C2739      C2740   1.411       .  A
C2740      N2741   1.427       .  S
N2741      O2745   1.262       .  A
N2741      O2746   1.262       .  A
N2744      O2748   1.262       .  A
N2744      O2747   1.262       .  A
C2749      C2750   1.397       .  A
C2749      C2754   1.404       .  A
C2749      H2756   1.084       .  S
C2750      C2751   1.412       .  A
C2751      C2752   1.395       .  A
C2751      N2758   1.429       .  S
C2752      C2753   1.398       .  A
C2752      H2757   1.084       .  S
C2753      C2754   1.424       .  A
C2754      N2755   1.430       .  S
N2755      O2759   1.262       .  A
N2755      O2760   1.262       .  A
N2758      O2762   1.262       .  A
N2758      O2761   1.262       .  A
C2763      C2764   1.399       .  A
C2763      C2768   1.391       .  A
C2763      H2770   1.083       .  S
C2764      C2765   1.413       .  A
C2765      C2766   1.400       .  A
C2765      N2772   1.429       .  S
C2766      C2767   1.408       .  A
C2766      H2771   1.084       .  S
C2767      C2768   1.418       .  A
C2768      N2769   1.433       .  S
N2769      O2773   1.260       .  A
N2769      O2774   1.262       .  A
N2772      O2776   1.262       .  A
N2772      O2775   1.262       .  A
C2777      C2778   1.406       .  A
C2777      C2782   1.402       .  A
C2777      H2784   1.083       .  S
C2778      C2779   1.412       .  A
C2779      C2780   1.397       .  A
C2779      N2786   1.428       .  S
C2780      C2781   1.405       .  A
C2780      H2785   1.084       .  S
C2781      C2782   1.413       .  A
C2782      N2783   1.429       .  S
N2783      O2787   1.262       .  A
N2783      O2788   1.262       .  A
N2786      O2790   1.262       .  A
N2786      O2789   1.262       .  A
C2791      C2792   1.397       .  A
C2791      C2796   1.393       .  A
C2791      H2798   1.085       .  S
C2792      C2793   1.412       .  A
C2793      C2794   1.391       .  A
C2793      N2800   1.430       .  S
C2794      C2795   1.399       .  A
C2794      H2799   1.084       .  S
C2795      C2796   1.408       .  A
C2796      N2797   1.427       .  S
N2797      O2801   1.262       .  A
N2797      O2802   1.259       .  A
N2800      O2804   1.261       .  A
N2800      O2803   1.262       .  A
C2805      C2806   1.401       .  A
C2805      C2810   1.393       .  A
C2805      H2812   1.082       .  S
C2806      C2807   1.407       .  A
C2807      C2808   1.384       .  A
C2807      N2814   1.432       .  S
C2808      C2809   1.405       .  A
C2808      H2813   1.085       .  S
C2809      C2810   1.404       .  A
C2810      N2811   1.428       .  S
N2811      O2815   1.261       .  A
N2811      O2816   1.262       .  A
N2814      O2818   1.262       .  A
N2814      O2817   1.262       .  A
C2819      C2820   1.407       .  A
C2819      C2824   1.396       .  A
C2819      H2826   1.084       .  S
C2820      C2821   1.410       .  A
C2821      C2822   1.400       .  A
C2821      N2828   1.428       .  S
C2822      C2823   1.409       .  A
C2822      H2827   1.084       .  S
C2823      C2824   1.409       .  A
C2824      N2825   1.427       .  S
N2825      O2829   1.262       .  A
N2825      O2830   1.261       .  A
N2828      O2832   1.261       .  A
N2828      O2831   1.262       .  A
C2833      C2834   1.407       .  A
C2833      C2838   1.393       .  A
C2833      H2840   1.084       .  S
C2834      C2835   1.412       .  A
C2835      C2836   1.411       .  A
C2835      N2842   1.427       .  S
C2836      C2837   1.410       .  A
C2836      H2841   1.083       .  S
C2837      C2838   1.417       .  A
C2838      N2839   1.433       .  S
N2839      O2843   1.262       .  A
N2839      O2844   1.261       .  A
N2842      O2846   1.262       .  A
N2842      O2845   1.262       .  A
C2847      C2848   1.406       .  A
C2847      C2852   1.409       .  A
C2847      H2854   1.084       .  S
C2848      C2849   1.423       .  A
C2849      C2850   1.421       .  A
C2849      N2856   1.428       .  S
C2850      C2851   1.410       .  A
C2850      H2855   1.083       .  S
C2851      C2852   1.420       .  A
C2852      N2853   1.426       .  S
N2853      O2857   1.261       .  A
N2853      O2858   1.262       .  A
N2856      O2860   1.262       .  A
N2856      O2859   1.262       .  A
C2861      C2862   1.403       .  A
C2861      C2866   1.405       .  A
C2861      H2868   1.083       .  S
C2862      C2863   1.410       .  A
C2863      C2864   1.401       .  A
C2863      N2870   1.426       .  S
C2864      C2865   1.404       .  A
C2864      H2869   1.084       .  S
C2865      C2866   1.416       .  A
C2866      N2867   1.429       .  S
N2867      O2871   1.262       .  A
N2867      O2872   1.262       .  A
N2870      O2874   1.261       .  A
N2870      O2873   1.262       .  A
C2875      C2876   1.403       .  A
C2875      C2880   1.412       .  A
C2875      H2882   1.083       .  S
C2876      C2877   1.420       .  A
C2877      C2878   1.401       .  A
C2877      N2884   1.428       .  S
C2878      C2879   1.399       .  A
C2878      H2883   1.084       .  S
C2879      C2880   1.428       .  A
C2880      N2881   1.440       .  S
N2881      O2885   1.263       .  A
N2881      O2886   1.263       .  A
N2884      O2888   1.262       .  A
N2884      O2887   1.262       .  A
C2889      C2890   1.410       .  A
C2889      C2894   1.416       .  A
C2889      H2896   1.084       .  S
C2890      C2891   1.414       .  A
C2891      C2892   1.399       .  A
C2891      N2898   1.431       .  S
C2892      C2893   1.400       .  A
C2892      H2897   1.078       .  S
C2893      C2894   1.414       .  A
C2894      N2895   1.428       .  S
N2895      O2899   1.262       .  A
N2895      O2900   1.262       .  A
N2898      O2902   1.261       .  A
N2898      O2901   1.262       .  A
C2903      C2904   1.405       .  A
C2903      C2908   1.418       .  A
C2903      H2910   1.084       .  S
C2904      C2905   1.413       .  A
C2905      C2906   1.401       .  A
C2905      N2912   1.430       .  S
C2906      C2907   1.404       .  A
C2906      H2911   1.085       .  S
C2907      C2908   1.417       .  A
C2908      N2909   1.425       .  S
N2909      O2913   1.261       .  A
N2909      O2914   1.261       .  A
N2912      O2916   1.262       .  A
N2912      O2915   1.262       .  A
C2917      C2918   1.399       .  A
C2917      C2922   1.403   1_556  A
C2917      H2924   1.084       .  S
C2918      C2919   1.418       .  A
C2919      C2920   1.413   1_556  A
C2919      N2926   1.430       .  S
C2920      C2921   1.408       .  A
C2920      H2925   1.083       .  S
C2921      C2922   1.423       .  A
C2922      N2923   1.429       .  S
N2923      O2927   1.262       .  A
N2923      O2928   1.262       .  A
N2926      O2930   1.262       .  A
N2926      O2929   1.262       .  A
C2931      C2932   1.400       .  A
C2931      C2936   1.403   1_556  A
C2931      H2938   1.084       .  S
C2932      C2933   1.412       .  A
C2933      C2934   1.402   1_556  A
C2933      N2940   1.428       .  S
C2934      C2935   1.402       .  A
C2934      H2939   1.084       .  S
C2935      C2936   1.415       .  A
C2936      N2937   1.429       .  S
N2937      O2941   1.262       .  A
N2937      O2942   1.262       .  A
N2940      O2944   1.261       .  A
N2940      O2943   1.262       .  A
C2945      C2946   1.402       .  A
C2945      C2950   1.398   1_655  A
C2945      H2952   1.084       .  S
C2946      C2947   1.414       .  A
C2947      C2948   1.400   1_655  A
C2947      N2954   1.429       .  S
C2948      C2949   1.404       .  A
C2948      H2953   1.084       .  S
C2949      C2950   1.414       .  A
C2950      N2951   1.429       .  S
N2951      O2955   1.262       .  A
N2951      O2956   1.262       .  A
N2954      O2958   1.262       .  A
N2954      O2957   1.262       .  A
C2959      C2960   1.404       .  A
C2959      C2964   1.413       .  A
C2959      H2966   1.083       .  S
C2960      C2961   1.414       .  A
C2961      C2962   1.388       .  A
C2961      N2968   1.431       .  S
C2962      C2963   1.396       .  A
C2962      H2967   1.083       .  S
C2963      C2964   1.417       .  A
C2964      N2965   1.428       .  S
N2965      O2969   1.262       .  A
N2965      O2970   1.262       .  A
N2968      O2972   1.262       .  A
N2968      O2971   1.262       .  A
C2973      C2974   1.406       .  A
C2973      C2978   1.406   1_655  A
C2973      H2980   1.084       .  S
C2974      C2975   1.415       .  A
C2975      C2976   1.399   1_655  A
C2975      N2982   1.429       .  S
C2976      C2977   1.406       .  A
C2976      H2981   1.084       .  S
C2977      C2978   1.417       .  A
C2978      N2979   1.428       .  S
N2979      O2983   1.262       .  A
N2979      O2984   1.262       .  A
N2982      O2986   1.262       .  A
N2982      O2985   1.262       .  A
C2987      C2988   1.407       .  A
C2987      C2992   1.397       .  A
C2987      H2994   1.084       .  S
C2988      C2989   1.417       .  A
C2989      C2990   1.413       .  A
C2989      N2996   1.428       .  S
C2990      C2991   1.404       .  A
C2990      H2995   1.079       .  S
C2991      C2992   1.404       .  A
C2992      N2993   1.425       .  S
N2993      O2997   1.258       .  A
N2993      O2998   1.260       .  A
N2996      O3000   1.262       .  A
N2996      O2999   1.262       .  A
C3001      C3002   1.413       .  A
C3001      C3006   1.401       .  A
C3001      H3008   1.084       .  S
C3002      C3003   1.414       .  A
C3003      C3004   1.420       .  A
C3003      N3010   1.428       .  S
C3004      C3005   1.415       .  A
C3004      H3009   1.083       .  S
C3005      C3006   1.412       .  A
C3006      N3007   1.430       .  S
N3007      O3011   1.261       .  A
N3007      O3012   1.262       .  A
N3010      O3014   1.262       .  A
N3010      O3013   1.261       .  A
C3015      C3016   1.397       .  A
C3015      C3020   1.401       .  A
C3015      H3022   1.084       .  S
C3016      C3017   1.417       .  A
C3017      C3018   1.411       .  A
C3017      N3024   1.428       .  S
C3018      C3019   1.404       .  A
C3018      H3023   1.084       .  S
C3019      C3020   1.419       .  A
C3020      N3021   1.429       .  S
N3021      O3025   1.261       .  A
N3021      O3026   1.261       .  A
N3024      O3028   1.262       .  A
N3024      O3027   1.262       .  A
C3029      C3030   1.408       .  A
C3029      C3034   1.407       .  A
C3029      H3036   1.084       .  S
C3030      C3031   1.416       .  A
C3031      C3032   1.389       .  A
C3031      N3038   1.430       .  S
C3032      C3033   1.403       .  A
C3032      H3037   1.084       .  S
C3033      C3034   1.413       .  A
C3034      N3035   1.427       .  S
N3035      O3039   1.262       .  A
N3035      O3040   1.262       .  A
N3038      O3042   1.261       .  A
N3038      O3041   1.261       .  A
C3043      C3044   1.410       .  A
C3043      C3048   1.409       .  A
C3043      H3050   1.083       .  S
C3044      C3045   1.415       .  A
C3045      C3046   1.407       .  A
C3045      N3052   1.437       .  S
C3046      C3047   1.406       .  A
C3046      H3051   1.082       .  S
C3047      C3048   1.411       .  A
C3048      N3049   1.430       .  S
N3049      O3053   1.262       .  A
N3049      O3054   1.262       .  A
N3052      O3056   1.262       .  A
N3052      O3055   1.263       .  A
C3057      C3058   1.398       .  A
C3057      C3062   1.385       .  A
C3057      H3064   1.084       .  S
C3058      C3059   1.414       .  A
C3059      C3060   1.403       .  A
C3059      N3066   1.427       .  S
C3060      C3061   1.402       .  A
C3060      H3065   1.082       .  S
C3061      C3062   1.409       .  A
C3062      N3063   1.429       .  S
N3063      O3067   1.262       .  A
N3063      O3068   1.261       .  A
N3066      O3070   1.262       .  A
N3066      O3069   1.261       .  A
C3071      C3072   1.403       .  A
C3071      C3076   1.394       .  A
C3071      H3078   1.084       .  S
C3072      C3073   1.410       .  A
C3073      C3074   1.396       .  A
C3073      N3080   1.428       .  S
C3074      C3075   1.406       .  A
C3074      H3079   1.084       .  S
C3075      C3076   1.415       .  A
C3076      N3077   1.431       .  S
N3077      O3081   1.260       .  A
N3077      O3082   1.261       .  A
N3080      O3084   1.262       .  A
N3080      O3083   1.262       .  A
C3085      C3086   1.398       .  A
C3085      C3090   1.392       .  A
C3085      H3092   1.084       .  S
C3086      C3087   1.413       .  A
C3087      C3088   1.391       .  A
C3087      N3094   1.429       .  S
C3088      C3089   1.402       .  A
C3088      H3093   1.084       .  S
C3089      C3090   1.409       .  A
C3090      N3091   1.422       .  S
N3091      O3095   1.261       .  A
N3091      O3096   1.262       .  A
N3094      O3098   1.262       .  A
N3094      O3097   1.262       .  A
C3099      C3100   1.400       .  A
C3099      C3104   1.400       .  A
C3099      H3106   1.084       .  S
C3100      C3101   1.414       .  A
C3101      C3102   1.399       .  A
C3101      N3108   1.429       .  S
C3102      C3103   1.404       .  A
C3102      H3107   1.084       .  S
C3103      C3104   1.419       .  A
C3104      N3105   1.429       .  S
N3105      O3109   1.262       .  A
N3105      O3110   1.262       .  A
N3108      O3112   1.262       .  A
N3108      O3111   1.262       .  A
C3113      C3114   1.397       .  A
C3113      C3118   1.407       .  A
C3113      H3120   1.084       .  S
C3114      C3115   1.412       .  A
C3115      C3116   1.402       .  A
C3115      N3122   1.428       .  S
C3116      C3117   1.403       .  A
C3116      H3121   1.083       .  S
C3117      C3118   1.426       .  A
C3118      N3119   1.429       .  S
N3119      O3123   1.262       .  A
N3119      O3124   1.262       .  A
N3122      O3126   1.262       .  A
N3122      O3125   1.262       .  A
C3127      C3128   1.407       .  A
C3127      C3132   1.410       .  A
C3127      H3134   1.084       .  S
C3128      C3129   1.426       .  A
C3129      C3130   1.414       .  A
C3129      N3136   1.423       .  S
C3130      C3131   1.398       .  A
C3130      H3135   1.083       .  S
C3131      C3132   1.416       .  A
C3132      N3133   1.429       .  S
N3133      O3137   1.262       .  A
N3133      O3138   1.262       .  A
N3136      O3140   1.262       .  A
N3136      O3139   1.262       .  A
C3141      C3142   1.407       .  A
C3141      C3146   1.398       .  A
C3141      H3148   1.084       .  S
C3142      C3143   1.411       .  A
C3143      C3144   1.391       .  A
C3143      N3150   1.431       .  S
C3144      C3145   1.404       .  A
C3144      H3149   1.084       .  S
C3145      C3146   1.408       .  A
C3146      N3147   1.429       .  S
N3147      O3151   1.262       .  A
N3147      O3152   1.262       .  A
N3150      O3154   1.261       .  A
N3150      O3153   1.261       .  A
C3155      C3156   1.402       .  A
C3155      C3160   1.400       .  A
C3155      H3162   1.083       .  S
C3156      C3157   1.413       .  A
C3157      C3158   1.394       .  A
C3157      N3164   1.430       .  S
C3158      C3159   1.401       .  A
C3158      H3163   1.084       .  S
C3159      C3160   1.412       .  A
C3160      N3161   1.430       .  S
N3161      O3165   1.261       .  A
N3161      O3166   1.262       .  A
N3164      O3168   1.261       .  A
N3164      O3167   1.261       .  A
C3169      C3170   1.404       .  A
C3169      C3174   1.402       .  A
C3169      H3176   1.084       .  S
C3170      C3171   1.419       .  A
C3171      C3172   1.392       .  A
C3171      N3178   1.430       .  S
C3172      C3173   1.395       .  A
C3172      H3177   1.085       .  S
C3173      C3174   1.412       .  A
C3174      N3175   1.429       .  S
N3175      O3179   1.262       .  A
N3175      O3180   1.262       .  A
N3178      O3182   1.262       .  A
N3178      O3181   1.262       .  A
C3183      C3184   1.406       .  A
C3183      C3188   1.414       .  A
C3183      H3190   1.084       .  S
C3184      C3185   1.422       .  A
C3185      C3186   1.398       .  A
C3185      N3192   1.430       .  S
C3186      C3187   1.400       .  A
C3186      H3191   1.082       .  S
C3187      C3188   1.421       .  A
C3188      N3189   1.428       .  S
N3189      O3193   1.262       .  A
N3189      O3194   1.262       .  A
N3192      O3196   1.263       .  A
N3192      O3195   1.260       .  A
C3197      C3198   1.405       .  A
C3197      C3202   1.410       .  A
C3197      H3204   1.084       .  S
C3198      C3199   1.410       .  A
C3199      C3200   1.379       .  A
C3199      N3206   1.428       .  S
C3200      C3201   1.397       .  A
C3200      H3205   1.085       .  S
C3201      C3202   1.414       .  A
C3202      N3203   1.428       .  S
N3203      O3207   1.261       .  A
N3203      O3208   1.262       .  A
N3206      O3210   1.259       .  A
N3206      O3209   1.262       .  A
C3211      C3212   1.409       .  A
C3211      C3216   1.412       .  A
C3211      H3218   1.083       .  S
C3212      C3213   1.412       .  A
C3213      C3214   1.395       .  A
C3213      N3220   1.432       .  S
C3214      C3215   1.409       .  A
C3214      H3219   1.083       .  S
C3215      C3216   1.415       .  A
C3216      N3217   1.427       .  S
N3217      O3221   1.261       .  A
N3217      O3222   1.262       .  A
N3220      O3224   1.262       .  A
N3220      O3223   1.262       .  A
C3225      C3226   1.409       .  A
C3225      C3230   1.403   1_556  A
C3225      H3232   1.084       .  S
C3226      C3227   1.408       .  A
C3227      C3228   1.407   1_556  A
C3227      N3234   1.429       .  S
C3228      C3229   1.407       .  A
C3228      H3233   1.080       .  S
C3229      C3230   1.406       .  A
C3230      N3231   1.428       .  S
N3231      O3235   1.262       .  A
N3231      O3236   1.262       .  A
N3234      O3238   1.262       .  A
N3234      O3237   1.262       .  A
C3239      C3240   1.403       .  A
C3239      C3244   1.394   1_565  A
C3239      H3246   1.084       .  S
C3240      C3241   1.408       .  A
C3241      C3242   1.400   1_565  A
C3241      N3248   1.428       .  S
C3242      C3243   1.402       .  A
C3242      H3247   1.084       .  S
C3243      C3244   1.407       .  A
C3244      N3245   1.430       .  S
N3245      O3249   1.262       .  A
N3245      O3250   1.262       .  A
N3248      O3252   1.262       .  A
N3248      O3251   1.261       .  A
C3253      C3254   1.414       .  A
C3253      C3258   1.411   1_545  A
C3253      H3260   1.083       .  S
C3254      C3255   1.413       .  A
C3255      C3256   1.404   1_545  A
C3255      N3262   1.431       .  S
C3256      C3257   1.409       .  A
C3256      H3261   1.080       .  S
C3257      C3258   1.408       .  A
C3258      N3259   1.428       .  S
N3259      O3263   1.262       .  A
N3259      O3264   1.262       .  A
N3262      O3266   1.262       .  A
N3262      O3265   1.262       .  A
C3267      C3268   1.406       .  A
C3267      C3272   1.391       .  A
C3267      H3274   1.084       .  S
C3268      C3269   1.413       .  A
C3269      C3270   1.423       .  A
C3269      N3276   1.425       .  S
C3270      C3271   1.417       .  A
C3270      H3275   1.083       .  S
C3271      C3272   1.412       .  A
C3272      N3273   1.425       .  S
N3273      O3277   1.260       .  A
N3273      O3278   1.262       .  A
N3276      O3280   1.261       .  A
N3276      O3279   1.261       .  A
C3281      C3282   1.401       .  A
C3281      C3286   1.404   1_556  A
C3281      H3288   1.084       .  S
C3282      C3283   1.418       .  A
C3283      C3284   1.409   1_556  A
C3283      N3290   1.428       .  S
C3284      C3285   1.403       .  A
C3284      H3289   1.084       .  S
C3285      C3286   1.413       .  A
C3286      N3287   1.425       .  S
N3287      O3291   1.262       .  A
N3287      O3292   1.262       .  A
N3290      O3294   1.262       .  A
N3290      O3293   1.261       .  A
C3295      C3296   1.410       .  A
C3295      C3300   1.410       .  A
C3295      H3302   1.083       .  S
C3296      C3297   1.413       .  A
C3297      C3298   1.389       .  A
C3297      N3304   1.423       .  S
C3298      C3299   1.401       .  A
C3298      H3303   1.084       .  S
C3299      C3300   1.413       .  A
C3300      N3301   1.428       .  S
N3301      O3305   1.262       .  A
N3301      O3306   1.262       .  A
N3304      O3308   1.262       .  A
N3304      O3307   1.262       .  A
C3309      C3310   1.402       .  A
C3309      C3314   1.397       .  A
C3309      H3316   1.084       .  S
C3310      C3311   1.418       .  A
C3311      C3312   1.420       .  A
C3311      N3318   1.427       .  S
C3312      C3313   1.409       .  A
C3312      H3317   1.083       .  S
C3313      C3314   1.419       .  A
C3314      N3315   1.429       .  S
N3315      O3319   1.261       .  A
N3315      O3320   1.262       .  A
N3318      O3322   1.260       .  A
N3318      O3321   1.261       .  A
C3323      C3324   1.403       .  A
C3323      C3328   1.403       .  A
C3323      H3330   1.084       .  S
C3324      C3325   1.422       .  A
C3325      C3326   1.404       .  A
C3325      N3332   1.427       .  S
C3326      C3327   1.399       .  A
C3326      H3331   1.084       .  S
C3327      C3328   1.418       .  A
C3328      N3329   1.429       .  S
N3329      O3333   1.262       .  A
N3329      O3334   1.261       .  A
N3332      O3336   1.262       .  A
N3332      O3335   1.262       .  A
C3337      C3338   1.399       .  A
C3337      C3342   1.388       .  A
C3337      H3344   1.076       .  S
C3338      C3339   1.414       .  A
C3339      C3340   1.397       .  A
C3339      N3346   1.428       .  S
C3340      C3341   1.398       .  A
C3340      H3345   1.084       .  S
C3341      C3342   1.406       .  A
C3342      N3343   1.431       .  S
N3343      O3347   1.262       .  A
N3343      O3348   1.262       .  A
N3346      O3350   1.261       .  A
N3346      O3349   1.262       .  A
C3351      C3352   1.395       .  A
C3351      C3356   1.397       .  A
C3351      H3358   1.077       .  S
C3352      C3353   1.407       .  A
C3353      C3354   1.398       .  A
C3353      N3360   1.426       .  S
C3354      C3355   1.403       .  A
C3354      H3359   1.084       .  S
C3355      C3356   1.410       .  A
C3356      N3357   1.431       .  S
N3357      O3361   1.262       .  A
N3357      O3362   1.262       .  A
N3360      O3364   1.261       .  A
N3360      O3363   1.261       .  A
C3365      C3366   1.401       .  A
C3365      C3370   1.393       .  A
C3365      H3372   1.084       .  S
C3366      C3367   1.414       .  A
C3367      C3368   1.396       .  A
C3367      N3374   1.430       .  S
C3368      C3369   1.401       .  A
C3368      H3373   1.084       .  S
C3369      C3370   1.411       .  A
C3370      N3371   1.429       .  S
N3371      O3375   1.261       .  A
N3371      O3376   1.262       .  A
N3374      O3378   1.262       .  A
N3374      O3377   1.262       .  A
C3379      C3380   1.404       .  A
C3379      C3384   1.397       .  A
C3379      H3386   1.084       .  S
C3380      C3381   1.416       .  A
C3381      C3382   1.404       .  A
C3381      N3388   1.430       .  S
C3382      C3383   1.408       .  A
C3382      H3387   1.084       .  S
C3383      C3384   1.415       .  A
C3384      N3385   1.429       .  S
N3385      O3389   1.262       .  A
N3385      O3390   1.262       .  A
N3388      O3392   1.262       .  A
N3388      O3391   1.262       .  A
C3393      C3394   1.399       .  A
C3393      C3398   1.394       .  A
C3393      H3400   1.084       .  S
C3394      C3395   1.418       .  A
C3395      C3396   1.398       .  A
C3395      N3402   1.432       .  S
C3396      C3397   1.400       .  A
C3396      H3401   1.084       .  S
C3397      C3398   1.403       .  A
C3398      N3399   1.422       .  S
N3399      O3403   1.260       .  A
N3399      O3404   1.262       .  A
N3402      O3406   1.262       .  A
N3402      O3405   1.262       .  A
C3407      C3408   1.402       .  A
C3407      C3412   1.398       .  A
C3407      H3414   1.084       .  S
C3408      C3409   1.410       .  A
C3409      C3410   1.393       .  A
C3409      N3416   1.429       .  S
C3410      C3411   1.402       .  A
C3410      H3415   1.084       .  S
C3411      C3412   1.416       .  A
C3412      N3413   1.429       .  S
N3413      O3417   1.262       .  A
N3413      O3418   1.262       .  A
N3416      O3420   1.261       .  A
N3416      O3419   1.261       .  A
C3421      C3422   1.401       .  A
C3421      C3426   1.394       .  A
C3421      H3428   1.085       .  S
C3422      C3423   1.413       .  A
C3423      C3424   1.415       .  A
C3423      N3430   1.427       .  S
C3424      C3425   1.407       .  A
C3424      H3429   1.084       .  S
C3425      C3426   1.411       .  A
C3426      N3427   1.430       .  S
N3427      O3431   1.260       .  A
N3427      O3432   1.262       .  A
N3430      O3434   1.261       .  A
N3430      O3433   1.261       .  A
C3435      C3436   1.397       .  A
C3435      C3440   1.406       .  A
C3435      H3442   1.084       .  S
C3436      C3437   1.414       .  A
C3437      C3438   1.410       .  A
C3437      N3444   1.429       .  S
C3438      C3439   1.409       .  A
C3438      H3443   1.083       .  S
C3439      C3440   1.423       .  A
C3440      N3441   1.428       .  S
N3441      O3445   1.262       .  A
N3441      O3446   1.261       .  A
N3444      O3448   1.262       .  A
N3444      O3447   1.262       .  A
C3449      C3450   1.400       .  A
C3449      C3454   1.401       .  A
C3449      H3456   1.083       .  S
C3450      C3451   1.418       .  A
C3451      C3452   1.407       .  A
C3451      N3458   1.430       .  S
C3452      C3453   1.411       .  A
C3452      H3457   1.083       .  S
C3453      C3454   1.414       .  A
C3454      N3455   1.421       .  S
N3455      O3459   1.261       .  A
N3455      O3460   1.262       .  A
N3458      O3462   1.262       .  A
N3458      O3461   1.262       .  A
C3463      C3464   1.394       .  A
C3463      C3468   1.394       .  A
C3463      H3470   1.085       .  S
C3464      C3465   1.399       .  A
C3465      C3466   1.382       .  A
C3465      N3472   1.426       .  S
C3466      C3467   1.397       .  A
C3466      H3471   1.085       .  S
C3467      C3468   1.416       .  A
C3468      N3469   1.429       .  S
N3469      O3473   1.261       .  A
N3469      O3474   1.262       .  A
N3472      O3476   1.260       .  A
N3472      O3475   1.262       .  A
C3477      C3478   1.415       .  A
C3477      C3482   1.415       .  A
C3477      H3484   1.083       .  S
C3478      C3479   1.410       .  A
C3479      C3480   1.403       .  A
C3479      N3486   1.427       .  S
C3480      C3481   1.405       .  A
C3480      H3485   1.081       .  S
C3481      C3482   1.408       .  A
C3482      N3483   1.428       .  S
N3483      O3487   1.262       .  A
N3483      O3488   1.262       .  A
N3486      O3490   1.262       .  A
N3486      O3489   1.261       .  A
C3491      C3492   1.415       .  A
C3491      C3496   1.418       .  A
C3491      H3498   1.083       .  S
C3492      C3493   1.417       .  A
C3493      C3494   1.406       .  A
C3493      N3500   1.429       .  S
C3494      C3495   1.411       .  A
C3494      H3499   1.084       .  S
C3495      C3496   1.415       .  A
C3496      N3497   1.427       .  S
N3497      O3501   1.261       .  A
N3497      O3502   1.261       .  A
N3500      O3504   1.261       .  A
N3500      O3503   1.261       .  A
C3505      C3506   1.403       .  A
C3505      C3510   1.412   1_556  A
C3505      H3512   1.084       .  S
C3506      C3507   1.413       .  A
C3507      C3508   1.399   1_556  A
C3507      N3514   1.425       .  S
C3508      C3509   1.402       .  A
C3508      H3513   1.084       .  S
C3509      C3510   1.420       .  A
C3510      N3511   1.428       .  S
N3511      O3515   1.262       .  A
N3511      O3516   1.262       .  A
N3514      O3518   1.262       .  A
N3514      O3517   1.261       .  A
C3519      C3520   1.402       .  A
C3519      C3524   1.390   1_655  A
C3519      H3526   1.085       .  S
C3520      C3521   1.414       .  A
C3521      C3522   1.410   1_655  A
C3521      N3528   1.428       .  S
C3522      C3523   1.405       .  A
C3522      H3527   1.084       .  S
C3523      C3524   1.408       .  A
C3524      N3525   1.429       .  S
N3525      O3529   1.262       .  A
N3525      O3530   1.261       .  A
N3528      O3532   1.262       .  A
N3528      O3531   1.260       .  A
C3533      C3534   1.397       .  A
C3533      C3538   1.392   1_556  A
C3533      H3540   1.084       .  S
C3534      C3535   1.413       .  A
C3535      C3536   1.403   1_556  A
C3535      N3542   1.428       .  S
C3536      C3537   1.401       .  A
C3536      H3541   1.084       .  S
C3537      C3538   1.411       .  A
C3538      N3539   1.428       .  S
N3539      O3543   1.262       .  A
N3539      O3544   1.262       .  A
N3542      O3546   1.261       .  A
N3542      O3545   1.261       .  A
C3547      C3548   1.403       .  A
C3547      C3552   1.392   1_565  A
C3547      H3554   1.084       .  S
C3548      C3549   1.415       .  A
C3549      C3550   1.403   1_565  A
C3549      N3556   1.429       .  S
C3550      C3551   1.406       .  A
C3550      H3555   1.084       .  S
C3551      C3552   1.412       .  A
C3552      N3553   1.429       .  S
N3553      O3557   1.262       .  A
N3553      O3558   1.262       .  A
N3556      O3560   1.262       .  A
N3556      O3559   1.262       .  A
C3561      C3562   1.403       .  A
C3561      C3566   1.407       .  A
C3561      H3568   1.084       .  S
C3562      C3563   1.413       .  A
C3563      C3564   1.391       .  A
C3563      N3570   1.431       .  S
C3564      C3565   1.401       .  A
C3564      H3569   1.083       .  S
C3565      C3566   1.414       .  A
C3566      N3567   1.428       .  S
N3567      O3571   1.262       .  A
N3567      O3572   1.262       .  A
N3570      O3574   1.262       .  A
N3570      O3573   1.261       .  A
C3575      C3576   1.409       .  A
C3575      C3580   1.404   1_455  A
C3575      H3582   1.084       .  S
C3576      C3577   1.414       .  A
C3577      C3578   1.398   1_455  A
C3577      N3584   1.431       .  S
C3578      C3579   1.406       .  A
C3578      H3583   1.084       .  S
C3579      C3580   1.408       .  A
C3580      N3581   1.428       .  S
N3581      O3585   1.262       .  A
N3581      O3586   1.262       .  A
N3584      O3588   1.260       .  A
N3584      O3587   1.261       .  A
C3589      C3590   1.413       .  A
C3589      C3594   1.401   1_565  A
C3589      H3596   1.083       .  S
C3590      C3591   1.408       .  A
C3591      C3592   1.400   1_565  A
C3591      N3598   1.428       .  S
C3592      C3593   1.412       .  A
C3592      H3597   1.084       .  S
C3593      C3594   1.407       .  A
C3594      N3595   1.429       .  S
N3595      O3599   1.262       .  A
N3595      O3600   1.262       .  A
N3598      O3602   1.262       .  A
N3598      O3601   1.262       .  A
C3603      C3604   1.412       .  A
C3603      C3608   1.415       .  A
C3603      H3610   1.082       .  S
C3604      C3605   1.419       .  A
C3605      C3606   1.407       .  A
C3605      N3612   1.429       .  S
C3606      C3607   1.405       .  A
C3606      H3611   1.084       .  S
C3607      C3608   1.420       .  A
C3608      N3609   1.436       .  S
N3609      O3613   1.260   1_545  A
N3609      O3614   1.262       .  A
N3612      O3616   1.262       .  A
N3612      O3615   1.261       .  A
C3617      C3618   1.407       .  A
C3617      C3622   1.407       .  A
C3617      H3624   1.084       .  S
C3618      C3619   1.419       .  A
C3619      C3620   1.414       .  A
C3619      N3626   1.428       .  S
C3620      C3621   1.410       .  A
C3620      H3625   1.083       .  S
C3621      C3622   1.420       .  A
C3622      N3623   1.429       .  S
N3623      O3627   1.261       .  A
N3623      O3628   1.262       .  A
N3626      O3630   1.262       .  A
N3626      O3629   1.262       .  A
C3631      C3632   1.406       .  A
C3631      C3636   1.408       .  A
C3631      H3638   1.084       .  S
C3632      C3633   1.410       .  A
C3633      C3634   1.410       .  A
C3633      N3640   1.426       .  S
C3634      C3635   1.409       .  A
C3634      H3639   1.083       .  S
C3635      C3636   1.416       .  A
C3636      N3637   1.429       .  S
N3637      O3641   1.261       .  A
N3637      O3642   1.260       .  A
N3640      O3644   1.261       .  A
N3640      O3643   1.261       .  A
C3645      C3646   1.413       .  A
C3645      C3650   1.413       .  A
C3645      H3652   1.084       .  S
C3646      C3647   1.410       .  A
C3647      C3648   1.398       .  A
C3647      N3654   1.429       .  S
C3648      C3649   1.410       .  A
C3648      H3653   1.084       .  S
C3649      C3650   1.412       .  A
C3650      N3651   1.429       .  S
N3651      O3655   1.261       .  A
N3651      O3656   1.261       .  A
N3654      O3658   1.262       .  A
N3654      O3657   1.262       .  A
C3659      C3660   1.395       .  A
C3659      C3664   1.395       .  A
C3659      H3666   1.085       .  S
C3660      C3661   1.410       .  A
C3661      C3662   1.403       .  A
C3661      N3668   1.428       .  S
C3662      C3663   1.404       .  A
C3662      H3667   1.084       .  S
C3663      C3664   1.422       .  A
C3664      N3665   1.431       .  S
N3665      O3669   1.262       .  A
N3665      O3670   1.261       .  A
N3668      O3672   1.262       .  A
N3668      O3671   1.261       .  A
C3673      C3674   1.404       .  A
C3673      C3678   1.405       .  A
C3673      H3680   1.084       .  S
C3674      C3675   1.396       .  A
C3675      C3676   1.394       .  A
C3675      N3682   1.418       .  S
C3676      C3677   1.402       .  A
C3676      H3681   1.084       .  S
C3677      C3678   1.418       .  A
C3678      N3679   1.431       .  S
N3679      O3683   1.262       .  A
N3679      O3684   1.262       .  A
N3682      O3686   1.260       .  A
N3682      O3685   1.262       .  A
C3687      C3688   1.395       .  A
C3687      C3692   1.385       .  A
C3687      H3694   1.084       .  S
C3688      C3689   1.417       .  A
C3689      C3690   1.397       .  A
C3689      N3696   1.430       .  S
C3690      C3691   1.401       .  A
C3690      H3695   1.084       .  S
C3691      C3692   1.412       .  A
C3692      N3693   1.426       .  S
N3693      O3697   1.260       .  A
N3693      O3698   1.261       .  A
N3696      O3700   1.262       .  A
N3696      O3699   1.261       .  A
C3701      C3702   1.408       .  A
C3701      C3706   1.403       .  A
C3701      H3708   1.084       .  S
C3702      C3703   1.418       .  A
C3703      C3704   1.414       .  A
C3703      N3710   1.429       .  S
C3704      C3705   1.410       .  A
C3704      H3709   1.084       .  S
C3705      C3706   1.411       .  A
C3706      N3707   1.429       .  S
N3707      O3711   1.262       .  A
N3707      O3712   1.262       .  A
N3710      O3714   1.262       .  A
N3710      O3713   1.262       .  A
C3715      C3716   1.404       .  A
C3715      C3720   1.401       .  A
C3715      H3722   1.084       .  S
C3716      C3717   1.416       .  A
C3717      C3718   1.399       .  A
C3717      N3724   1.429       .  S
C3718      C3719   1.404       .  A
C3718      H3723   1.084       .  S
C3719      C3720   1.416       .  A
C3720      N3721   1.429       .  S
N3721      O3725   1.261       .  A
N3721      O3726   1.262       .  A
N3724      O3728   1.262       .  A
N3724      O3727   1.262       .  A
C3729      C3730   1.405       .  A
C3729      C3734   1.414       .  A
C3729      H3736   1.084       .  S
C3730      C3731   1.416       .  A
C3731      C3732   1.403       .  A
C3731      N3738   1.429       .  S
C3732      C3733   1.399       .  A
C3732      H3737   1.080       .  S
C3733      C3734   1.417       .  A
C3734      N3735   1.428       .  S
N3735      O3739   1.261       .  A
N3735      O3740   1.262       .  A
N3738      O3742   1.262       .  A
N3738      O3741   1.261       .  A
C3743      C3744   1.401       .  A
C3743      C3748   1.396       .  A
C3743      H3750   1.084       .  S
C3744      C3745   1.408       .  A
C3745      C3746   1.393       .  A
C3745      N3752   1.420       .  S
C3746      C3747   1.393       .  A
C3746      H3751   1.084       .  S
C3747      C3748   1.413       .  A
C3748      N3749   1.429       .  S
N3749      O3753   1.262       .  A
N3749      O3754   1.260       .  A
N3752      O3756   1.261       .  A
N3752      O3755   1.262       .  A
C3757      C3758   1.408       .  A
C3757      C3762   1.396       .  A
C3757      H3764   1.082       .  S
C3758      C3759   1.412       .  A
C3759      C3760   1.403       .  A
C3759      N3766   1.428       .  S
C3760      C3761   1.403       .  A
C3760      H3765   1.084       .  S
C3761      C3762   1.405       .  A
C3762      N3763   1.431       .  S
N3763      O3767   1.262       .  A
N3763      O3768   1.262       .  A
N3766      O3770   1.261       .  A
N3766      O3769   1.262       .  A
C3771      C3772   1.413       .  A
C3771      C3776   1.397       .  A
C3771      H3778   1.083       .  S
C3772      C3773   1.412       .  A
C3773      C3774   1.416       .  A
C3773      N3780   1.428       .  S
C3774      C3775   1.414       .  A
C3774      H3779   1.083       .  S
C3775      C3776   1.408       .  A
C3776      N3777   1.430       .  S
N3777      O3781   1.262       .  A
N3777      O3782   1.262       .  A
N3780      O3784   1.262       .  A
N3780      O3783   1.262       .  A
C3785      C3786   1.402       .  A
C3785      C3790   1.395       .  A
C3785      H3792   1.084       .  S
C3786      C3787   1.417       .  A
C3787      C3788   1.398       .  A
C3787      N3794   1.429       .  S
C3788      C3789   1.402       .  A
C3788      H3793   1.083       .  S
C3789      C3790   1.418       .  A
C3790      N3791   1.429       .  S
N3791      O3795   1.262       .  A
N3791      O3796   1.262       .  A
N3794      O3798   1.262       .  A
N3794      O3797   1.262       .  A
C3799      C3800   1.409       .  A
C3799      C3804   1.415       .  A
C3799      H3806   1.083       .  S
C3800      C3801   1.417       .  A
C3801      C3802   1.418       .  A
C3801      N3808   1.428       .  S
C3802      C3803   1.413       .  A
C3802      H3807   1.084       .  S
C3803      C3804   1.418       .  A
C3804      N3805   1.426       .  S
N3805      O3809   1.261       .  A
N3805      O3810   1.262       .  A
N3808      O3812   1.262       .  A
N3808      O3811   1.262       .  A
C3813      C3814   1.406       .  A
C3813      C3818   1.406       .  A
C3813      H3820   1.083       .  S
C3814      C3815   1.408       .  A
C3815      C3816   1.391       .  A
C3815      N3822   1.422       .  S
C3816      C3817   1.401       .  A
C3816      H3821   1.083       .  S
C3817      C3818   1.415       .  A
C3818      N3819   1.425       .  S
N3819      O3823   1.261       .  A
N3819      O3824   1.262       .  A
N3822      O3826   1.261       .  A
N3822      O3825   1.261       .  A
C3827      C3828   1.404       .  A
C3827      C3832   1.390       .  A
C3827      H3834   1.006       .  S
C3828      C3829   1.407       .  A
C3829      C3830   1.394       .  A
C3829      N3836   1.427       .  S
C3830      C3831   1.399       .  A
C3830      H3835   1.079       .  S
C3831      C3832   1.398       .  A
C3832      N3833   1.430       .  S
N3833      O3837   1.262       .  A
N3833      O3838   1.261       .  A
N3836      O3840   1.259       .  A
N3836      O3839   1.262       .  A
C3841      C3842   1.408       .  A
C3841      C3846   1.414       .  A
C3841      H3848   1.084       .  S
C3842      C3843   1.410       .  A
C3843      C3844   1.396       .  A
C3843      N3850   1.430       .  S
C3844      C3845   1.405       .  A
C3844      H3849   1.082       .  S
C3845      C3846   1.414       .  A
C3846      N3847   1.426       .  S
N3847      O3851   1.261       .  A
N3847      O3852   1.262       .  A
N3850      O3854   1.262       .  A
N3850      O3853   1.262       .  A
C3855      C3856   1.403       .  A
C3855      C3860   1.404       .  A
C3855      H3862   1.082       .  S
C3856      C3857   1.426       .  A
C3857      C3858   1.412       .  A
C3857      N3864   1.427       .  S
C3858      C3859   1.398       .  A
C3858      H3863   1.084       .  S
C3859      C3860   1.419       .  A
C3860      N3861   1.433       .  S
N3861      O3865   1.262       .  A
N3861      O3866   1.261       .  A
N3864      O3868   1.261       .  A
N3864      O3867   1.262       .  A
C3869      C3870   1.406       .  A
C3869      C3874   1.395       .  A
C3869      H3876   1.084       .  S
C3870      C3871   1.417       .  A
C3871      C3872   1.411       .  A
C3871      N3878   1.428       .  S
C3872      C3873   1.406       .  A
C3872      H3877   1.083       .  S
C3873      C3874   1.415       .  A
C3874      N3875   1.432       .  S
N3875      O3879   1.261       .  A
N3875      O3880   1.262       .  A
N3878      O3882   1.262       .  A
N3878      O3881   1.262       .  A
C3883      C3884   1.412       .  A
C3883      C3888   1.404       .  A
C3883      H3890   1.078       .  S
C3884      C3885   1.410       .  A
C3885      C3886   1.408       .  A
C3885      N3892   1.432       .  S
C3886      C3887   1.411       .  A
C3886      H3891   1.012       .  S
C3887      C3888   1.404       .  A
C3888      N3889   1.428       .  S
N3889      O3893   1.261       .  A
N3889      O3894   1.262       .  A
N3892      O3896   1.262       .  A
N3892      O3895   1.262       .  A
C3897      C3898   1.405       .  A
C3897      C3902   1.403       .  A
C3897      H3904   1.085       .  S
C3898      C3899   1.404       .  A
C3899      C3900   1.400       .  A
C3899      N3906   1.425       .  S
C3900      C3901   1.412       .  A
C3900      H3905   1.082       .  S
C3901      C3902   1.411       .  A
C3902      N3903   1.424       .  S
N3903      O3907   1.262       .  A
N3903      O3908   1.261       .  A
N3906      O3910   1.261       .  A
N3906      O3909   1.262       .  A
C3911      C3912   1.411       .  A
C3911      C3916   1.407       .  A
C3911      H3918   1.084       .  S
C3912      C3913   1.413       .  A
C3913      C3914   1.392       .  A
C3913      N3920   1.430       .  S
C3914      C3915   1.399       .  A
C3914      H3919   1.081       .  S
C3915      C3916   1.406       .  A
C3916      N3917   1.428       .  S
N3917      O3921   1.262       .  A
N3917      O3922   1.262       .  A
N3920      O3924   1.262       .  A
N3920      O3923   1.262       .  A
C3925      C3926   1.415       .  A
C3925      C3930   1.401       .  A
C3925      H3932   1.083       .  S
C3926      C3927   1.410       .  A
C3927      C3928   1.410       .  A
C3927      N3934   1.425       .  S
C3928      C3929   1.409       .  A
C3928      H3933   1.082       .  S
C3929      C3930   1.405       .  A
C3930      N3931   1.428       .  S
N3931      O3935   1.262       .  A
N3931      O3936   1.262       .  A
N3934      O3938   1.262       .  A
N3934      O3937   1.260       .  A
C3939      C3940   1.408       .  A
C3939      C3944   1.417       .  A
C3939      H3946   1.083       .  S
C3940      C3941   1.428       .  A
C3941      C3942   1.410       .  A
C3941      N3948   1.427       .  S
C3942      C3943   1.399       .  A
C3942      H3947   1.084       .  S
C3943      C3944   1.425       .  A
C3944      N3945   1.428       .  S
N3945      O3949   1.262       .  A
N3945      O3950   1.262       .  A
N3948      O3952   1.261       .  A
N3948      O3951   1.262       .  A
C3953      C3954   1.408       .  A
C3953      C3958   1.402       .  A
C3953      H3960   1.084       .  S
C3954      C3955   1.412       .  A
C3955      C3956   1.412       .  A
C3955      N3962   1.428       .  S
C3956      C3957   1.405       .  A
C3956      H3961   1.077       .  S
C3957      C3958   1.406       .  A
C3958      N3959   1.423       .  S
N3959      O3963   1.261       .  A
N3959      O3964   1.262       .  A
N3962      O3966   1.262       .  A
N3962      O3965   1.262       .  A
C3967      C3968   1.405       .  A
C3967      C3972   1.400       .  A
C3967      H3974   1.079       .  S
C3968      C3969   1.405       .  A
C3969      C3970   1.399       .  A
C3969      N3976   1.430       .  S
C3970      C3971   1.414       .  A
C3970      H3975   1.084       .  S
C3971      C3972   1.409       .  A
C3972      N3973   1.429       .  S
N3973      O3977   1.262       .  A
N3973      O3978   1.262       .  A
N3976      O3980   1.261       .  A
N3976      O3979   1.261       .  A
C3981      C3982   1.410       .  A
C3981      C3986   1.412       .  A
C3981      H3988   1.083       .  S
C3982      C3983   1.413       .  A
C3983      C3984   1.385       .  A
C3983      N3990   1.430       .  S
C3984      C3985   1.406       .  A
C3984      H3989   1.084       .  S
C3985      C3986   1.413       .  A
C3986      N3987   1.427       .  S
N3987      O3991   1.262       .  A
N3987      O3992   1.262       .  A
N3990      O3994   1.262       .  A
N3990      O3993   1.262       .  A
C3995      C3996   1.410       .  A
C3995      C4000   1.409       .  A
C3995      H4002   1.083       .  S
C3996      C3997   1.419       .  A
C3997      C3998   1.404       .  A
C3997      N4004   1.427       .  S
C3998      C3999   1.401       .  A
C3998      H4003   1.082       .  S
C3999      C4000   1.413       .  A
C4000      N4001   1.429       .  S
N4001      O4005   1.261       .  A
N4001      O4006   1.262       .  A
N4004      O4008   1.262       .  A
N4004      O4007   1.262       .  A
C4009      C4010   1.392       .  A
C4009      C4014   1.402       .  A
C4009      H4016   1.084       .  S
C4010      C4011   1.431       .  A
C4011      C4012   1.423       .  A
C4011      N4018   1.431       .  S
C4012      C4013   1.408       .  A
C4012      H4017   1.083       .  S
C4013      C4014   1.421       .  A
C4014      N4015   1.418       .  S
N4015      O4019   1.258       .  A
N4015      O4020   1.260       .  A
N4018      O4022   1.262       .  A
N4018      O4021   1.261       .  A
C4023      C4024   1.399       .  A
C4023      C4028   1.391       .  A
C4023      H4030   1.080       .  S
C4024      C4025   1.410       .  A
C4025      C4026   1.400       .  A
C4025      N4032   1.428       .  S
C4026      C4027   1.403       .  A
C4026      H4031   1.084       .  S
C4027      C4028   1.413       .  A
C4028      N4029   1.430       .  S
N4029      O4033   1.262       .  A
N4029      O4034   1.262       .  A
N4032      O4036   1.261       .  A
N4032      O4035   1.262       .  A
C4037      C4038   1.407       .  A
C4037      C4042   1.416       .  A
C4037      H4044   1.083       .  S
C4038      C4039   1.430       .  A
C4039      C4040   1.393       .  A
C4039      N4046   1.432       .  S
C4040      C4041   1.396       .  A
C4040      H4045   1.084       .  S
C4041      C4042   1.423       .  A
C4042      N4043   1.429       .  S
N4043      O4047   1.262       .  A
N4043      O4048   1.262       .  A
N4046      O4050   1.261       .  A
N4046      O4049   1.262       .  A
C4051      C4052   1.406       .  A
C4051      C4056   1.416       .  A
C4051      H4058   1.083       .  S
C4052      C4053   1.423       .  A
C4053      C4054   1.409       .  A
C4053      N4060   1.430       .  S
C4054      C4055   1.408       .  A
C4054      H4059   1.084       .  S
C4055      C4056   1.421       .  A
C4056      N4057   1.425       .  S
N4057      O4061   1.261       .  A
N4057      O4062   1.262       .  A
N4060      O4064   1.262   1_455  A
N4060      O4063   1.262       .  A
C4065      C4066   1.408       .  A
C4065      C4070   1.405       .  A
C4065      H4072   1.084       .  S
C4066      C4067   1.419       .  A
C4067      C4068   1.408       .  A
C4067      N4074   1.427       .  S
C4068      C4069   1.400       .  A
C4068      H4073   1.079       .  S
C4069      C4070   1.416       .  A
C4070      N4071   1.430       .  S
N4071      O4075   1.261       .  A
N4071      O4076   1.262       .  A
N4074      O4078   1.261       .  A
N4074      O4077   1.261       .  A
C4079      C4080   1.408       .  A
C4079      C4084   1.414       .  A
C4079      H4086   1.083       .  S
C4080      C4081   1.422       .  A
C4081      C4082   1.395       .  A
C4081      N4088   1.428       .  S
C4082      C4083   1.400       .  A
C4082      H4087   1.084       .  S
C4083      C4084   1.418       .  A
C4084      N4085   1.427       .  S
N4085      O4089   1.261       .  A
N4085      O4090   1.260       .  A
N4088      O4092   1.261       .  A
N4088      O4091   1.262       .  A
C4093      C4094   1.413       .  A
C4093      C4098   1.424       .  A
C4093      H4100   1.083       .  S
C4094      C4095   1.418       .  A
C4095      C4096   1.408       .  A
C4095      N4102   1.424       .  S
C4096      C4097   1.406       .  A
C4096      H4101   1.084       .  S
C4097      C4098   1.422       .  A
C4098      N4099   1.428       .  S
N4099      O4103   1.262       .  A
N4099      O4104   1.262       .  A
N4102      O4106   1.262       .  A
N4102      O4105   1.261       .  A
C4107      C4108   1.412       .  A
C4107      C4112   1.419       .  A
C4107      H4114   1.083       .  S
C4108      C4109   1.426       .  A
C4109      C4110   1.406       .  A
C4109      N4116   1.431       .  S
C4110      C4111   1.401       .  A
C4110      H4115   1.084       .  S
C4111      C4112   1.415       .  A
C4112      N4113   1.427       .  S
N4113      O4117   1.262       .  A
N4113      O4118   1.262       .  A
N4116      O4120   1.262       .  A
N4116      O4119   1.262       .  A
C4121      C4122   1.412       .  A
C4121      C4126   1.396       .  A
C4121      H4128   1.084       .  S
C4122      C4123   1.407       .  A
C4123      C4124   1.403       .  A
C4123      N4130   1.428       .  S
C4124      C4125   1.413       .  A
C4124      H4129   1.083       .  S
C4125      C4126   1.410       .  A
C4126      N4127   1.430       .  S
N4127      O4131   1.262       .  A
N4127      O4132   1.262       .  A
N4130      O4134   1.262       .  A
N4130      O4133   1.261       .  A
C4135      C4136   1.412       .  A
C4135      C4140   1.410       .  A
C4135      H4142   1.080       .  S
C4136      C4137   1.419       .  A
C4137      C4138   1.416       .  A
C4137      N4144   1.428       .  S
C4138      C4139   1.408       .  A
C4138      H4143   1.084       .  S
C4139      C4140   1.411       .  A
C4140      N4141   1.429       .  S
N4141      O4145   1.262       .  A
N4141      O4146   1.262       .  A
N4144      O4148   1.262       .  A
N4144      O4147   1.262       .  A
C4149      C4150   1.404       .  A
C4149      C4154   1.403       .  A
C4149      H4156   1.083       .  S
C4150      C4151   1.419       .  A
C4151      C4152   1.419       .  A
C4151      N4158   1.428       .  S
C4152      C4153   1.414       .  A
C4152      H4157   1.083       .  S
C4153      C4154   1.422       .  A
C4154      N4155   1.429       .  S
N4155      O4159   1.261       .  A
N4155      O4160   1.262       .  A
N4158      O4162   1.262       .  A
N4158      O4161   1.262       .  A
C4163      C4164   1.410       .  A
C4163      C4168   1.412       .  A
C4163      H4170   1.084       .  S
C4164      C4165   1.411       .  A
C4165      C4166   1.397       .  A
C4165      N4172   1.424       .  S
C4166      C4167   1.400       .  A
C4166      H4171   1.081       .  S
C4167      C4168   1.416       .  A
C4168      N4169   1.428       .  S
N4169      O4173   1.262       .  A
N4169      O4174   1.262       .  A
N4172      O4176   1.261       .  A
N4172      O4175   1.261       .  A
C4177      C4178   1.411       .  A
C4177      C4182   1.415       .  A
C4177      H4184   1.084       .  S
C4178      C4179   1.414       .  A
C4179      C4180   1.407       .  A
C4179      N4186   1.429       .  S
C4180      C4181   1.409       .  A
C4180      H4185   1.084       .  S
C4181      C4182   1.414       .  A
C4182      N4183   1.426       .  S
N4183      O4187   1.262       .  A
N4183      O4188   1.261       .  A
N4186      O4190   1.262       .  A
N4186      O4189   1.262       .  A
C4191      C4192   1.410       .  A
C4191      C4196   1.415       .  A
C4191      H4198   1.084       .  S
C4192      C4193   1.420       .  A
C4193      C4194   1.417       .  A
C4193      N4200   1.426       .  S
C4194      C4195   1.407       .  A
C4194      H4199   1.083       .  S
C4195      C4196   1.425       .  A
C4196      N4197   1.433       .  S
N4197      O4201   1.262       .  A
N4197      O4202   1.261       .  A
N4200      O4204   1.262       .  A
N4200      O4203   1.261       .  A
C4205      C4206   1.409       .  A
C4205      C4210   1.408       .  A
C4205      H4212   1.084       .  S
C4206      C4207   1.416       .  A
C4207      C4208   1.404       .  A
C4207      N4214   1.429       .  S
C4208      C4209   1.406       .  A
C4208      H4213   1.084       .  S
C4209      C4210   1.415       .  A
C4210      N4211   1.429       .  S
N4211      O4215   1.262       .  A
N4211      O4216   1.262       .  A
N4214      O4218   1.262       .  A
N4214      O4217   1.262       .  A
C4219      C4220   1.410       .  A
C4219      C4224   1.413       .  A
C4219      H4226   1.083       .  S
C4220      C4221   1.412       .  A
C4221      C4222   1.391       .  A
C4221      N4228   1.430       .  S
C4222      C4223   1.406       .  A
C4222      H4227   1.083       .  S
C4223      C4224   1.416       .  A
C4224      N4225   1.428       .  S
N4225      O4229   1.262       .  A
N4225      O4230   1.262       .  A
N4228      O4232   1.260       .  A
N4228      O4231   1.262       .  A
C4233      C4234   1.394       .  A
C4233      C4238   1.390       .  A
C4233      H4240   1.085       .  S
C4234      C4235   1.414       .  A
C4235      C4236   1.409       .  A
C4235      N4242   1.437       .  S
C4236      C4237   1.400       .  A
C4236      H4241   1.084       .  S
C4237      C4238   1.416       .  A
C4238      N4239   1.432       .  S
N4239      O4243   1.263       .  A
N4239      O4244   1.261       .  A
N4242      O4246   1.263       .  A
N4242      O4245   1.262       .  A
C4247      C4248   1.409       .  A
C4247      C4252   1.421       .  A
C4247      H4254   1.083       .  S
C4248      C4249   1.420       .  A
C4249      C4250   1.403       .  A
C4249      N4256   1.433       .  S
C4250      C4251   1.404       .  A
C4250      H4255   1.081       .  S
C4251      C4252   1.422       .  A
C4252      N4253   1.427       .  S
N4253      O4257   1.262       .  A
N4253      O4258   1.262       .  A
N4256      O4260   1.263       .  A
N4256      O4259   1.262       .  A
C4261      C4262   1.397       .  A
C4261      C4266   1.397       .  A
C4261      H4268   1.081       .  S
C4262      C4263   1.409       .  A
C4263      C4264   1.401       .  A
C4263      N4270   1.429       .  S
C4264      C4265   1.408       .  A
C4264      H4269   1.084       .  S
C4265      C4266   1.416       .  A
C4266      N4267   1.428       .  S
N4267      O4271   1.262       .  A
N4267      O4272   1.261       .  A
N4270      O4274   1.262       .  A
N4270      O4273   1.261       .  A
C4275      C4276   1.399       .  A
C4275      C4280   1.400       .  A
C4275      H4282   1.085       .  S
C4276      C4277   1.413       .  A
C4277      C4278   1.413       .  A
C4277      N4284   1.427       .  S
C4278      C4279   1.409       .  A
C4278      H4283   1.084       .  S
C4279      C4280   1.418       .  A
C4280      N4281   1.429       .  S
N4281      O4285   1.261       .  A
N4281      O4286   1.262       .  A
N4284      O4288   1.262       .  A
N4284      O4287   1.262       .  A
C4289      C4290   1.405       .  A
C4289      C4294   1.405       .  A
C4289      H4296   1.084       .  S
C4290      C4291   1.416       .  A
C4291      C4292   1.418       .  A
C4291      N4298   1.421       .  S
C4292      C4293   1.408       .  A
C4292      H4297   1.083       .  S
C4293      C4294   1.425       .  A
C4294      N4295   1.431       .  S
N4295      O4299   1.262       .  A
N4295      O4300   1.262       .  A
N4298      O4302   1.261       .  A
N4298      O4301   1.261       .  A
C4303      C4304   1.394       .  A
C4303      C4308   1.381       .  A
C4303      H4310   1.084       .  S
C4304      C4305   1.420       .  A
C4305      C4306   1.408       .  A
C4305      N4312   1.432       .  S
C4306      C4307   1.408       .  A
C4306      H4311   1.084       .  S
C4307      C4308   1.417       .  A
C4308      N4309   1.435       .  S
N4309      O4313   1.263       .  A
N4309      O4314   1.262       .  A
N4312      O4316   1.262       .  A
N4312      O4315   1.263       .  A
C4317      C4318   1.404       .  A
C4317      C4322   1.405       .  A
C4317      H4324   1.084       .  S
C4318      C4319   1.419       .  A
C4319      C4320   1.413       .  A
C4319      N4326   1.429       .  S
C4320      C4321   1.408       .  A
C4320      H4325   1.083       .  S
C4321      C4322   1.422       .  A
C4322      N4323   1.430       .  S
N4323      O4327   1.262       .  A
N4323      O4328   1.262       .  A
N4326      O4330   1.262       .  A
N4326      O4329   1.262       .  A
C4331      C4332   1.401       .  A
C4331      C4336   1.399       .  A
C4331      H4338   1.085       .  S
C4332      C4333   1.414       .  A
C4333      C4334   1.415       .  A
C4333      N4340   1.429       .  S
C4334      C4335   1.409       .  A
C4334      H4339   1.084       .  S
C4335      C4336   1.413       .  A
C4336      N4337   1.429       .  S
N4337      O4341   1.262       .  A
N4337      O4342   1.262       .  A
N4340      O4344   1.262       .  A
N4340      O4343   1.262       .  A
C4345      C4346   1.400       .  A
C4345      C4350   1.405       .  A
C4345      H4352   1.084       .  S
C4346      C4347   1.413       .  A
C4347      C4348   1.388       .  A
C4347      N4354   1.427       .  S
C4348      C4349   1.395       .  A
C4348      H4353   1.081       .  S
C4349      C4350   1.417       .  A
C4350      N4351   1.428       .  S
N4351      O4355   1.262       .  A
N4351      O4356   1.262       .  A
N4354      O4358   1.262       .  A
N4354      O4357   1.262       .  A
C4359      C4360   1.396       .  A
C4359      C4364   1.400       .  A
C4359      H4366   1.084       .  S
C4360      C4361   1.422       .  A
C4361      C4362   1.399       .  A
C4361      N4368   1.424       .  S
C4362      C4363   1.394       .  A
C4362      H4367   1.085       .  S
C4363      C4364   1.417       .  A
C4364      N4365   1.421       .  S
N4365      O4369   1.261       .  A
N4365      O4370   1.262       .  A
N4368      O4372   1.261       .  A
N4368      O4371   1.260   1_565  A
C4373      C4374   1.405       .  A
C4373      C4378   1.398       .  A
C4373      H4380   1.083       .  S
C4374      C4375   1.414       .  A
C4375      C4376   1.409       .  A
C4375      N4382   1.428       .  S
C4376      C4377   1.410       .  A
C4376      H4381   1.084       .  S
C4377      C4378   1.414       .  A
C4378      N4379   1.427       .  S
N4379      O4383   1.261       .  A
N4379      O4384   1.260       .  A
N4382      O4386   1.262       .  A
N4382      O4385   1.262       .  A
C4387      C4388   1.397       .  A
C4387      C4392   1.395       .  A
C4387      H4394   1.082       .  S
C4388      C4389   1.410       .  A
C4389      C4390   1.407       .  A
C4389      N4396   1.428       .  S
C4390      C4391   1.407       .  A
C4390      H4395   1.084       .  S
C4391      C4392   1.409       .  A
C4392      N4393   1.427       .  S
N4393      O4397   1.261       .  A
N4393      O4398   1.261       .  A
N4396      O4400   1.261       .  A
N4396      O4399   1.262       .  A
C4401      C4402   1.407       .  A
C4401      C4406   1.409       .  A
C4401      H4408   1.084       .  S
C4402      C4403   1.414       .  A
C4403      C4404   1.399       .  A
C4403      N4410   1.426       .  S
C4404      C4405   1.401       .  A
C4404      H4409   1.084       .  S
C4405      C4406   1.419       .  A
C4406      N4407   1.429       .  S
N4407      O4411   1.262       .  A
N4407      O4412   1.262       .  A
N4410      O4414   1.261       .  A
N4410      O4413   1.262       .  A
C4415      C4416   1.404       .  A
C4415      C4420   1.401       .  A
C4415      H4422   1.084       .  S
C4416      C4417   1.412       .  A
C4417      C4418   1.401       .  A
C4417      N4424   1.431       .  S
C4418      C4419   1.407       .  A
C4418      H4423   1.081       .  S
C4419      C4420   1.410       .  A
C4420      N4421   1.426       .  S
N4421      O4425   1.263       .  A
N4421      O4426   1.262       .  A
N4424      O4428   1.262       .  A
N4424      O4427   1.262       .  A
C4429      C4430   1.406       .  A
C4429      C4434   1.399       .  A
C4429      H4436   1.084       .  S
C4430      C4431   1.422       .  A
C4431      C4432   1.419       .  A
C4431      N4438   1.427       .  S
C4432      C4433   1.404       .  A
C4432      H4437   1.083       .  S
C4433      C4434   1.414       .  A
C4434      N4435   1.429       .  S
N4435      O4439   1.262       .  A
N4435      O4440   1.262       .  A
N4438      O4442   1.262       .  A
N4438      O4441   1.261       .  A
C4443      C4444   1.401       .  A
C4443      C4448   1.395       .  A
C4443      H4450   1.083       .  S
C4444      C4445   1.415       .  A
C4445      C4446   1.392       .  A
C4445      N4452   1.424       .  S
C4446      C4447   1.396       .  A
C4446      H4451   1.084       .  S
C4447      C4448   1.420       .  A
C4448      N4449   1.431       .  S
N4449      O4453   1.262       .  A
N4449      O4454   1.262       .  A
N4452      O4456   1.261       .  A
N4452      O4455   1.262       .  A
C4457      C4458   1.402       .  A
C4457      C4462   1.403       .  A
C4457      H4464   1.082       .  S
C4458      C4459   1.419       .  A
C4459      C4460   1.409       .  A
C4459      N4466   1.427       .  S
C4460      C4461   1.404       .  A
C4460      H4465   1.084       .  S
C4461      C4462   1.415       .  A
C4462      N4463   1.427       .  S
N4463      O4467   1.262       .  A
N4463      O4468   1.262       .  A
N4466      O4470   1.262       .  A
N4466      O4469   1.262       .  A
C4471      C4472   1.406       .  A
C4471      C4476   1.403       .  A
C4471      H4478   1.082       .  S
C4472      C4473   1.417       .  A
C4473      C4474   1.403       .  A
C4473      N4480   1.428       .  S
C4474      C4475   1.401       .  A
C4474      H4479   1.081       .  S
C4475      C4476   1.411       .  A
C4476      N4477   1.428       .  S
N4477      O4481   1.262       .  A
N4477      O4482   1.262       .  A
N4480      O4484   1.260       .  A
N4480      O4483   1.261       .  A
C4485      C4486   1.395       .  A
C4485      C4490   1.392       .  A
C4485      H4492   1.082       .  S
C4486      C4487   1.411       .  A
C4487      C4488   1.387       .  A
C4487      N4494   1.428       .  S
C4488      C4489   1.395       .  A
C4488      H4493   1.079       .  S
C4489      C4490   1.413       .  A
C4490      N4491   1.425       .  S
N4491      O4495   1.260       .  A
N4491      O4496   1.261       .  A
N4494      O4498   1.262       .  A
N4494      O4497   1.262       .  A
C4499      C4500   1.398       .  A
C4499      C4504   1.393       .  A
C4499      H4506   1.084       .  S
C4500      C4501   1.420       .  A
C4501      C4502   1.414       .  A
C4501      N4508   1.428       .  S
C4502      C4503   1.405       .  A
C4502      H4507   1.084       .  S
C4503      C4504   1.422       .  A
C4504      N4505   1.430       .  S
N4505      O4509   1.261       .  A
N4505      O4510   1.262       .  A
N4508      O4512   1.262       .  A
N4508      O4511   1.262       .  A
C4513      C4514   1.411       .  A
C4513      C4518   1.419       .  A
C4513      H4520   1.083       .  S
C4514      C4515   1.428       .  A
C4515      C4516   1.401       .  A
C4515      N4522   1.431       .  S
C4516      C4517   1.399       .  A
C4516      H4521   1.084       .  S
C4517      C4518   1.416       .  A
C4518      N4519   1.426       .  S
N4519      O4523   1.262       .  A
N4519      O4524   1.261       .  A
N4522      O4526   1.263       .  A
N4522      O4525   1.261       .  A
C4527      C4528   1.409       .  A
C4527      C4532   1.404       .  A
C4527      H4534   1.084       .  S
C4528      C4529   1.415       .  A
C4529      C4530   1.405       .  A
C4529      N4536   1.430       .  S
C4530      C4531   1.407       .  A
C4530      H4535   1.082       .  S
C4531      C4532   1.408       .  A
C4532      N4533   1.424       .  S
N4533      O4537   1.262       .  A
N4533      O4538   1.262       .  A
N4536      O4540   1.262       .  A
N4536      O4539   1.262       .  A
C4541      C4542   1.414       .  A
C4541      C4546   1.429       .  A
C4541      H4548   1.083       .  S
C4542      C4543   1.412       .  A
C4543      C4544   1.408       .  A
C4543      N4550   1.431       .  S
C4544      C4545   1.413       .  A
C4544      H4549   1.083       .  S
C4545      C4546   1.421       .  A
C4546      N4547   1.426       .  S
N4547      O4551   1.261       .  A
N4547      O4552   1.262       .  A
N4550      O4554   1.262       .  A
N4550      O4553   1.262       .  A
C4555      C4556   1.409       .  A
C4555      C4560   1.415       .  A
C4555      H4562   1.085       .  S
C4556      C4557   1.421       .  A
C4557      C4558   1.410       .  A
C4557      N4564   1.430       .  S
C4558      C4559   1.402       .  A
C4558      H4563   1.084       .  S
C4559      C4560   1.420       .  A
C4560      N4561   1.428       .  S
N4561      O4565   1.262       .  A
N4561      O4566   1.262       .  A
N4564      O4568   1.262       .  A
N4564      O4567   1.262       .  A
C4569      C4570   1.408       .  A
C4569      C4574   1.406       .  A
C4569      H4576   1.084       .  S
C4570      C4571   1.410       .  A
C4571      C4572   1.401       .  A
C4571      N4578   1.427       .  S
C4572      C4573   1.407       .  A
C4572      H4577   1.084       .  S
C4573      C4574   1.413       .  A
C4574      N4575   1.428       .  S
N4575      O4579   1.262       .  A
N4575      O4580   1.262       .  A
N4578      O4582   1.261       .  A
N4578      O4581   1.262       .  A
C4583      C4584   1.407       .  A
C4583      C4588   1.411       .  A
C4583      H4590   1.083       .  S
C4584      C4585   1.424       .  A
C4585      C4586   1.399       .  A
C4585      N4592   1.433       .  S
C4586      C4587   1.405       .  A
C4586      H4591   1.084       .  S
C4587      C4588   1.415       .  A
C4588      N4589   1.422       .  S
N4589      O4593   1.259       .  A
N4589      O4594   1.262       .  A
N4592      O4596   1.262       .  A
N4592      O4595   1.262       .  A
C4597      C4598   1.399       .  A
C4597      C4602   1.401       .  A
C4597      H4604   1.078       .  S
C4598      C4599   1.422       .  A
C4599      C4600   1.419       .  A
C4599      N4606   1.429       .  S
C4600      C4601   1.410       .  A
C4600      H4605   1.084       .  S
C4601      C4602   1.418       .  A
C4602      N4603   1.426       .  S
N4603      O4607   1.261       .  A
N4603      O4608   1.262       .  A
N4606      O4610   1.262       .  A
N4606      O4609   1.262       .  A
C4611      C4612   1.405       .  A
C4611      C4616   1.403       .  A
C4611      H4618   1.078       .  S
C4612      C4613   1.419       .  A
C4613      C4614   1.423       .  A
C4613      N4620   1.428       .  S
C4614      C4615   1.414       .  A
C4614      H4619   1.084       .  S
C4615      C4616   1.413       .  A
C4616      N4617   1.429       .  S
N4617      O4621   1.262       .  A
N4617      O4622   1.262       .  A
N4620      O4624   1.262       .  A
N4620      O4623   1.262       .  A
C4625      C4626   1.404       .  A
C4625      C4630   1.420       .  A
C4625      H4632   1.083       .  S
C4626      C4627   1.423       .  A
C4627      C4628   1.406       .  A
C4627      N4634   1.427       .  S
C4628      C4629   1.402       .  A
C4628      H4633   1.084       .  S
C4629      C4630   1.424       .  A
C4630      N4631   1.423       .  S
N4631      O4635   1.262       .  A
N4631      O4636   1.261       .  A
N4634      O4638   1.261       .  A
N4634      O4637   1.259       .  A
C4639      C4640   1.408       .  A
C4639      C4644   1.419       .  A
C4639      H4646   1.083       .  S
C4640      C4641   1.421       .  A
C4641      C4642   1.394       .  A
C4641      N4648   1.429       .  S
C4642      C4643   1.399       .  A
C4642      H4647   1.084       .  S
C4643      C4644   1.421       .  A
C4644      N4645   1.427       .  S
N4645      O4649   1.262       .  A
N4645      O4650   1.262       .  A
N4648      O4652   1.261       .  A
N4648      O4651   1.260       .  A
C4653      C4654   1.401       .  A
C4653      C4658   1.403       .  A
C4653      H4660   1.084       .  S
C4654      C4655   1.422       .  A
C4655      C4656   1.395       .  A
C4655      N4662   1.415       .  S
C4656      C4657   1.381       .  A
C4656      H4661   1.084       .  S
C4657      C4658   1.415       .  A
C4658      N4659   1.426       .  S
N4659      O4663   1.262       .  A
N4659      O4664   1.260       .  A
N4662      O4666   1.261       .  A
N4662      O4665   1.261       .  A
C4667      C4668   1.407       .  A
C4667      C4672   1.402       .  A
C4667      H4674   1.084       .  S
C4668      C4669   1.415       .  A
C4669      C4670   1.408       .  A
C4669      N4676   1.429       .  S
C4670      C4671   1.411       .  A
C4670      H4675   1.084       .  S
C4671      C4672   1.412       .  A
C4672      N4673   1.427       .  S
N4673      O4677   1.261       .  A
N4673      O4678   1.261       .  A
N4676      O4680   1.262       .  A
N4676      O4679   1.262       .  A
C4681      C4682   1.404       .  A
C4681      C4686   1.386       .  A
C4681      H4688   1.084       .  S
C4682      C4683   1.414       .  A
C4683      C4684   1.414       .  A
C4683      N4690   1.428       .  S
C4684      C4685   1.412       .  A
C4684      H4689   1.083       .  S
C4685      C4686   1.415       .  A
C4686      N4687   1.430       .  S
N4687      O4691   1.262       .  A
N4687      O4692   1.262       .  A
N4690      O4694   1.262       .  A
N4690      O4693   1.261       .  A
C4695      C4696   1.400       .  A
C4695      C4700   1.400       .  A
C4695      H4702   1.084       .  S
C4696      C4697   1.420       .  A
C4697      C4698   1.410       .  A
C4697      N4704   1.427       .  S
C4698      C4699   1.403       .  A
C4698      H4703   1.083       .  S
C4699      C4700   1.429       .  A
C4700      N4701   1.434       .  S
N4701      O4705   1.260       .  A
N4701      O4706   1.259       .  A
N4704      O4708   1.261       .  A
N4704      O4707   1.262       .  A
C4709      C4710   1.409       .  A
C4709      C4714   1.404       .  A
C4709      H4716   1.082       .  S
C4710      C4711   1.412       .  A
C4711      C4712   1.416       .  A
C4711      N4718   1.426       .  S
C4712      C4713   1.413       .  A
C4712      H4717   1.083       .  S
C4713      C4714   1.416       .  A
C4714      N4715   1.430       .  S
N4715      O4719   1.262       .  A
N4715      O4720   1.261       .  A
N4718      O4722   1.262       .  A
N4718      O4721   1.261       .  A
C4723      C4724   1.396       .  A
C4723      C4728   1.398       .  A
C4723      H4730   1.084       .  S
C4724      C4725   1.418       .  A
C4725      C4726   1.402       .  A
C4725      N4732   1.430       .  S
C4726      C4727   1.404       .  A
C4726      H4731   1.084       .  S
C4727      C4728   1.411       .  A
C4728      N4729   1.420       .  S
N4729      O4733   1.262       .  A
N4729      O4734   1.260       .  A
N4732      O4736   1.261       .  A
N4732      O4735   1.262       .  A
C4737      C4738   1.416       .  A
C4737      C4742   1.397       .  A
C4737      H4744   1.084       .  S
C4738      C4739   1.402       .  A
C4739      C4740   1.404       .  A
C4739      N4746   1.426       .  S
C4740      C4741   1.405       .  A
C4740      H4745   1.078       .  S
C4741      C4742   1.403       .  A
C4742      N4743   1.431       .  S
N4743      O4747   1.262       .  A
N4743      O4748   1.262       .  A
N4746      O4750   1.262       .  A
N4746      O4749   1.260       .  A
C4751      C4752   1.410       .  A
C4751      C4756   1.419       .  A
C4751      H4758   1.083       .  S
C4752      C4753   1.418       .  A
C4753      C4754   1.407       .  A
C4753      N4760   1.426       .  S
C4754      C4755   1.406       .  A
C4754      H4759   1.083       .  S
C4755      C4756   1.421       .  A
C4756      N4757   1.428       .  S
N4757      O4761   1.262       .  A
N4757      O4762   1.262       .  A
N4760      O4764   1.261       .  A
N4760      O4763   1.262       .  A
C4765      C4766   1.410       .  A
C4765      C4770   1.416       .  A
C4765      H4772   1.083       .  S
C4766      C4767   1.421       .  A
C4767      C4768   1.399       .  A
C4767      N4774   1.435       .  S
C4768      C4769   1.405       .  A
C4768      H4773   1.083       .  S
C4769      C4770   1.419       .  A
C4770      N4771   1.428       .  S
N4771      O4775   1.262       .  A
N4771      O4776   1.262       .  A
N4774      O4778   1.263       .  A
N4774      O4777   1.261       .  A
C4779      C4780   1.408       .  A
C4779      C4784   1.412       .  A
C4779      H4786   1.084       .  S
C4780      C4781   1.417       .  A
C4781      C4782   1.400       .  A
C4781      N4788   1.424       .  S
C4782      C4783   1.398       .  A
C4782      H4787   1.084       .  S
C4783      C4784   1.420       .  A
C4784      N4785   1.429       .  S
N4785      O4789   1.262       .  A
N4785      O4790   1.262       .  A
N4788      O4792   1.261       .  A
N4788      O4791   1.262       .  A
C4793      C4794   1.404       .  A
C4793      C4798   1.411       .  A
C4793      H4800   1.083       .  S
C4794      C4795   1.423       .  A
C4795      C4796   1.397       .  A
C4795      N4802   1.425       .  S
C4796      C4797   1.390       .  A
C4796      H4801   1.084       .  S
C4797      C4798   1.420       .  A
C4798      N4799   1.429       .  S
N4799      O4803   1.262       .  A
N4799      O4804   1.262       .  A
N4802      O4806   1.261       .  A
N4802      O4805   1.259       .  A
C4807      C4808   1.405       .  A
C4807      C4812   1.393       .  A
C4807      H4814   1.085       .  S
C4808      C4809   1.400       .  A
C4809      C4810   1.392       .  A
C4809      N4816   1.429       .  S
C4810      C4811   1.410       .  A
C4810      H4815   1.081       .  S
C4811      C4812   1.411       .  A
C4812      N4813   1.430       .  S
N4813      O4817   1.262       .  A
N4813      O4818   1.262       .  A
N4816      O4820   1.262       .  A
N4816      O4819   1.262       .  A
C4821      C4822   1.392       .  A
C4821      C4826   1.392       .  A
C4821      H4828   1.082       .  S
C4822      C4823   1.416       .  A
C4823      C4824   1.412       .  A
C4823      N4830   1.428       .  S
C4824      C4825   1.406       .  A
C4824      H4829   1.083       .  S
C4825      C4826   1.424       .  A
C4826      N4827   1.432       .  S
N4827      O4831   1.262       .  A
N4827      O4832   1.261       .  A
N4830      O4834   1.262       .  A
N4830      O4833   1.262       .  A
C4835      C4836   1.410       .  A
C4835      C4840   1.409       .  A
C4835      H4842   1.083       .  S
C4836      C4837   1.420       .  A
C4837      C4838   1.418       .  A
C4837      N4844   1.427       .  S
C4838      C4839   1.410       .  A
C4838      H4843   1.083       .  S
C4839      C4840   1.420       .  A
C4840      N4841   1.430       .  S
N4841      O4845   1.261       .  A
N4841      O4846   1.262       .  A
N4844      O4848   1.262       .  A
N4844      O4847   1.262       .  A
C4849      C4850   1.405       .  A
C4849      C4854   1.405       .  A
C4849      H4856   1.084       .  S
C4850      C4851   1.407       .  A
C4851      C4852   1.394       .  A
C4851      N4858   1.429       .  S
C4852      C4853   1.407       .  A
C4852      H4857   1.084       .  S
C4853      C4854   1.411       .  A
C4854      N4855   1.428       .  S
N4855      O4859   1.262       .  A
N4855      O4860   1.262       .  A
N4858      O4862   1.262       .  A
N4858      O4861   1.262       .  A
C4863      C4864   1.405       .  A
C4863      C4868   1.381       .  A
C4863      H4870   1.083       .  S
C4864      C4865   1.411       .  A
C4865      C4866   1.406       .  A
C4865      N4872   1.428       .  S
C4866      C4867   1.410       .  A
C4866      H4871   1.083       .  S
C4867      C4868   1.409       .  A
C4868      N4869   1.432       .  S
N4869      O4873   1.262       .  A
N4869      O4874   1.261       .  A
N4872      O4876   1.262       .  A
N4872      O4875   1.262       .  A
C4877      C4878   1.397       .  A
C4877      C4882   1.391       .  A
C4877      H4884   1.084       .  S
C4878      C4879   1.416       .  A
C4879      C4880   1.401       .  A
C4879      N4886   1.431       .  S
C4880      C4881   1.403       .  A
C4880      H4885   1.081       .  S
C4881      C4882   1.419       .  A
C4882      N4883   1.430       .  S
N4883      O4887   1.262       .  A
N4883      O4888   1.262       .  A
N4886      O4890   1.261       .  A
N4886      O4889   1.261       .  A
C4891      C4892   1.419       .  A
C4891      C4896   1.417       .  A
C4891      H4898   1.084       .  S
C4892      C4893   1.408       .  A
C4893      C4894   1.410       .  A
C4893      N4900   1.424       .  S
C4894      C4895   1.408       .  A
C4894      H4899   1.079       .  S
C4895      C4896   1.412       .  A
C4896      N4897   1.426       .  S
N4897      O4901   1.261       .  A
N4897      O4902   1.261       .  A
N4900      O4904   1.262       .  A
N4900      O4903   1.261       .  A
C4905      C4906   1.410       .  A
C4905      C4910   1.405       .  A
C4905      H4912   1.082       .  S
C4906      C4907   1.414       .  A
C4907      C4908   1.404       .  A
C4907      N4914   1.428       .  S
C4908      C4909   1.407       .  A
C4908      H4913   1.084       .  S
C4909      C4910   1.410       .  A
C4910      N4911   1.429       .  S
N4911      O4915   1.262       .  A
N4911      O4916   1.262       .  A
N4914      O4918   1.262       .  A
N4914      O4917   1.262       .  A
C4919      C4920   1.410       .  A
C4919      C4924   1.381       .  A
C4919      H4926   1.082       .  S
C4920      C4921   1.406       .  A
C4921      C4922   1.402       .  A
C4921      N4928   1.428       .  S
C4922      C4923   1.412       .  A
C4922      H4927   1.084       .  S
C4923      C4924   1.397       .  A
C4924      N4925   1.427       .  S
N4925      O4929   1.262       .  A
N4925      O4930   1.261       .  A
N4928      O4932   1.262       .  A
N4928      O4931   1.262       .  A
C4933      C4934   1.412       .  A
C4933      C4938   1.418       .  A
C4933      H4940   1.081       .  S
C4934      C4935   1.407       .  A
C4935      C4936   1.396       .  A
C4935      N4942   1.426       .  S
C4936      C4937   1.401       .  A
C4936      H4941   1.079       .  S
C4937      C4938   1.408       .  A
C4938      N4939   1.427       .  S
N4939      O4943   1.262       .  A
N4939      O4944   1.259       .  A
N4942      O4946   1.260       .  A
N4942      O4945   1.261       .  A
C4947      C4948   1.397       .  A
C4947      C4952   1.400       .  A
C4947      H4954   1.084       .  S
C4948      C4949   1.410       .  A
C4949      C4950   1.398       .  A
C4949      N4956   1.429       .  S
C4950      C4951   1.401       .  A
C4950      H4955   1.083       .  S
C4951      C4952   1.418       .  A
C4952      N4953   1.429       .  S
N4953      O4957   1.261       .  A
N4953      O4958   1.262       .  A
N4956      O4960   1.262       .  A
N4956      O4959   1.262       .  A
C4961      C4962   1.401       .  A
C4961      C4966   1.389       .  A
C4961      H4968   1.085       .  S
C4962      C4963   1.405       .  A
C4963      C4964   1.401       .  A
C4963      N4970   1.429       .  S
C4964      C4965   1.410       .  A
C4964      H4969   1.084       .  S
C4965      C4966   1.415       .  A
C4966      N4967   1.432       .  S
N4967      O4971   1.262       .  A
N4967      O4972   1.260       .  A
N4970      O4974   1.262       .  A
N4970      O4973   1.262       .  A
C4975      C4976   1.409       .  A
C4975      C4980   1.394       .  A
C4975      H4982   1.084       .  S
C4976      C4977   1.416       .  A
C4977      C4978   1.393       .  A
C4977      N4984   1.432       .  S
C4978      C4979   1.401       .  A
C4978      H4983   1.085       .  S
C4979      C4980   1.404       .  A
C4980      N4981   1.429       .  S
N4981      O4985   1.262       .  A
N4981      O4986   1.262       .  A
N4984      O4988   1.262       .  A
N4984      O4987   1.262       .  A
C4989      C4990   1.410       .  A
C4989      C4994   1.402       .  A
C4989      H4996   1.084       .  S
C4990      C4991   1.416       .  A
C4991      C4992   1.417       .  A
C4991      N4998   1.427       .  S
C4992      C4993   1.412       .  A
C4992      H4997   1.083       .  S
C4993      C4994   1.415       .  A
C4994      N4995   1.430       .  S
N4995      O4999   1.261       .  A
N4995      O5000   1.262       .  A
N4998      O5002   1.262       .  A
N4998      O5001   1.262       .  A
C5003      C5004   1.409       .  A
C5003      C5008   1.397       .  A
C5003      H5010   1.084       .  S
C5004      C5005   1.408       .  A
C5005      C5006   1.380       .  A
C5005      N5012   1.431       .  S
C5006      C5007   1.404       .  A
C5006      H5011   1.084       .  S
C5007      C5008   1.405       .  A
C5008      N5009   1.429       .  S
N5009      O5013   1.262       .  A
N5009      O5014   1.262       .  A
N5012      O5016   1.261       .  A
N5012      O5015   1.261       .  A
C5017      C5018   1.405       .  A
C5017      C5022   1.394       .  A
C5017      H5024   1.084       .  S
C5018      C5019   1.416       .  A
C5019      C5020   1.395       .  A
C5019      N5026   1.425       .  S
C5020      C5021   1.393       .  A
C5020      H5025   1.082       .  S
C5021      C5022   1.408       .  A
C5022      N5023   1.430       .  S
N5023      O5027   1.262       .  A
N5023      O5028   1.262       .  A
N5026      O5030   1.261       .  A
N5026      O5029   1.261       .  A
C5031      C5032   1.406       .  A
C5031      C5036   1.404       .  A
C5031      H5038   1.084       .  S
C5032      C5033   1.405       .  A
C5033      C5034   1.394       .  A
C5033      N5040   1.428       .  S
C5034      C5035   1.402       .  A
C5034      H5039   1.078       .  S
C5035      C5036   1.417       .  A
C5036      N5037   1.429       .  S
N5037      O5041   1.262       .  A
N5037      O5042   1.262       .  A
N5040      O5044   1.261       .  A
N5040      O5043   1.262       .  A
C5045      C5046   1.399       .  A
C5045      C5050   1.397       .  A
C5045      H5052   1.084       .  S
C5046      C5047   1.413       .  A
C5047      C5048   1.394       .  A
C5047      N5054   1.427       .  S
C5048      C5049   1.400       .  A
C5048      H5053   1.084       .  S
C5049      C5050   1.419       .  A
C5050      N5051   1.429       .  S
N5051      O5055   1.262       .  A
N5051      O5056   1.262       .  A
N5054      O5058   1.261       .  A
N5054      O5057   1.262       .  A
C5059      C5060   1.398       .  A
C5059      C5064   1.392       .  A
C5059      H5066   1.084       .  S
C5060      C5061   1.414       .  A
C5061      C5062   1.403       .  A
C5061      N5068   1.423       .  S
C5062      C5063   1.402       .  A
C5062      H5067   1.084       .  S
C5063      C5064   1.426       .  A
C5064      N5065   1.437       .  S
N5065      O5069   1.263       .  A
N5065      O5070   1.262       .  A
N5068      O5072   1.262       .  A
N5068      O5071   1.260       .  A
C5073      C5074   1.405       .  A
C5073      C5078   1.400       .  A
C5073      H5080   1.084       .  S
C5074      C5075   1.420       .  A
C5075      C5076   1.405       .  A
C5075      N5082   1.432       .  S
C5076      C5077   1.406       .  A
C5076      H5081   1.084       .  S
C5077      C5078   1.407       .  A
C5078      N5079   1.426       .  S
N5079      O5083   1.262       .  A
N5079      O5084   1.261       .  A
N5082      O5086   1.261       .  A
N5082      O5085   1.262       .  A
C5087      C5088   1.406       .  A
C5087      C5092   1.412       .  A
C5087      H5094   1.084       .  S
C5088      C5089   1.413       .  A
C5089      C5090   1.394       .  A
C5089      N5096   1.430       .  S
C5090      C5091   1.398       .  A
C5090      H5095   1.080       .  S
C5091      C5092   1.417       .  A
C5092      N5093   1.430       .  S
N5093      O5097   1.262       .  A
N5093      O5098   1.262       .  A
N5096      O5100   1.261       .  A
N5096      O5099   1.262       .  A
