geometry optimzed in LAMMPS
_audit_creation_date              2020-11-30 
_audit_creation_method            'lammps2cif' 
_symmetry_space_group_name_H-M    'P1' 
_symmetry_Int_Tables_number       1 
_symmetry_cell_setting            triclinic 
loop_ 
_symmetry_equiv_pos_as_xyz 
  x,y,z 
_cell_length_a                    68.50729770521498 
_cell_length_b                    37.262335245467426 
_cell_length_c                    27.350489357954952 
_cell_angle_alpha                 89.80397180071093 
_cell_angle_beta                  89.94696223994914 
_cell_angle_gamma                 89.96188287511158 
loop_ 
_atom_site_label 
_atom_site_type_symbol 
_atom_site_fract_x 
_atom_site_fract_y 
_atom_site_fract_z 
_atom_site_charge 
C1          C  0.82820798  0.46576398  0.58617878     0.03580
C2          C  0.82534393  0.48129556  0.63214726    -0.12570
C3          C  0.80786615  0.49931357  0.64319713     0.01080
C4          C  0.79329984  0.50209533  0.60717036    -0.11100
C5          C  0.79583820  0.48623749  0.56085554     0.03570
C6          C  0.81306929  0.46678141  0.55183899    -0.10520
H7          H  0.83718269  0.48111669  0.65841061     0.09160
H8          H  0.78017314  0.51713282  0.61514174     0.06690
H9          H  0.81511942  0.45301605  0.51744858     0.06540
N10         N  0.98891454  0.35170561  0.50221556    -0.26840
N11         N  0.00459496  0.36987311  0.48851247    -0.34700
C12         C  0.02002903  0.34777593  0.48653982     0.01500
C13         C  0.01384214  0.31389100  0.49902908     0.07520
C14         C  0.99403114  0.31710292  0.50851509    -0.05580
H15         H  0.03473086  0.35602412  0.47741477     0.08190
H16         H  0.98423695  0.29615945  0.52079507     0.09390
Cu17       Cu  0.00573147  0.42403147  0.47647464     0.44170
Cu18       Cu  0.96174988  0.37546167  0.51566747     0.41990
Cu19       Cu  0.96289640  0.47272819  0.49983239     0.43880
N20         N  0.00553230  0.47882984  0.47946402    -0.34230
N21         N  0.98952026  0.49722750  0.48885241    -0.28480
C22         C  0.99422465  0.53188103  0.49492814    -0.04590
C23         C  0.01420971  0.53516156  0.48923081     0.07630
C24         C  0.02093189  0.50106788  0.47925743     0.01430
H25         H  0.98400345  0.55268151  0.50519679     0.09080
H26         H  0.03594913  0.49264942  0.47493867     0.08160
N27         N  0.93821392  0.44386244  0.51767498    -0.35680
N28         N  0.93750286  0.40883139  0.52552455    -0.27860
C29         C  0.91910740  0.39996489  0.53864403    -0.03100
C30         C  0.90784731  0.43094478  0.53820974     0.05510
C31         C  0.92046812  0.45804824  0.52472623     0.03600
H32         H  0.91421387  0.37298317  0.54668991     0.08710
H33         H  0.91705367  0.48627361  0.52083059     0.07540
C34         C  0.21351163  0.63782824  0.47656814     0.03580
C35         C  0.21703455  0.61941879  0.43276887    -0.12570
C36         C  0.23406421  0.59895847  0.42665724     0.01080
C37         C  0.24762111  0.59673565  0.46494891    -0.11100
C38         C  0.24453095  0.61547877  0.50887472     0.03570
C39         C  0.22765936  0.63673575  0.51362037    -0.10520
H40         H  0.20598275  0.61911215  0.40445540     0.09160
H41         H  0.26035751  0.57979052  0.46070259     0.06690
H42         H  0.22522815  0.65203479  0.54664747     0.06540
N43         N  0.05102368  0.74907003  0.54805340    -0.26840
N44         N  0.03498518  0.72939432  0.54668775    -0.34700
C45         C  0.01932599  0.75012891  0.55454049     0.01500
C46         C  0.02566165  0.78466941  0.56172473     0.07520
C47         C  0.04585689  0.78325676  0.55762361    -0.05580
H48         H  0.00440819  0.74061554  0.55478484     0.08190
H49         H  0.05595258  0.80548612  0.56016069     0.09390
Cu50       Cu  0.03407622  0.67563934  0.53332709     0.44170
Cu51       Cu  0.07873700  0.72761578  0.53395639     0.41990
Cu52       Cu  0.07750858  0.62989566  0.50841235     0.43880
N53         N  0.03441718  0.62252055  0.51583444    -0.34230
N54         N  0.05062934  0.60482465  0.50617895    -0.28480
C55         C  0.04605562  0.57076451  0.49484618    -0.04590
C56         C  0.02595289  0.56732626  0.49757019     0.07630
C57         C  0.01906072  0.60059767  0.51103766     0.01430
H58         H  0.05653504  0.55021287  0.48529468     0.09080
H59         H  0.00403258  0.60844774  0.51683458     0.08160
N60         N  0.10243881  0.66114203  0.50966088    -0.35680
N61         N  0.10325064  0.69618242  0.51754855    -0.27860
C62         C  0.12207910  0.70672870  0.51463352    -0.03100
C63         C  0.13340978  0.67680013  0.50485119     0.05510
C64         C  0.12052797  0.64855286  0.50215405     0.03600
H65         H  0.12715847  0.73386830  0.52041043     0.08710
H66         H  0.12406188  0.62068791  0.49546068     0.07540
C67         C  0.21260830  0.13479467  0.60029659     0.03580
C68         C  0.21645606  0.11764327  0.64504284    -0.12570
C69         C  0.23425714  0.09976479  0.65304625     0.01080
C70         C  0.24831218  0.09913045  0.61566546    -0.11100
C71         C  0.24472252  0.11654926  0.57099922     0.03570
C72         C  0.22697057  0.13450379  0.56375570    -0.10520
H73         H  0.20517491  0.11645585  0.67279066     0.09160
H74         H  0.26203488  0.08524271  0.62130403     0.06690
H75         H  0.22407913  0.14727814  0.52884378     0.06540
N76         N  0.05114543  0.24528256  0.51562483    -0.26840
N77         N  0.03514184  0.22559053  0.51268334    -0.34700
C78         C  0.01960476  0.24688221  0.50577843     0.01500
C79         C  0.02604283  0.28176953  0.50371537     0.07520
C80         C  0.04612369  0.27998437  0.50977658    -0.05580
H81         H  0.00468348  0.23756067  0.50337825     0.08190
H82         H  0.05619952  0.30227866  0.51172057     0.09390
Cu83       Cu  0.03399711  0.17126667  0.52210748     0.44170
Cu84       Cu  0.07855796  0.22367251  0.53207319     0.41990
Cu85       Cu  0.07672381  0.12668476  0.55836320     0.43880
N86         N  0.03391868  0.11894002  0.54435178    -0.34230
N87         N  0.04983298  0.10193823  0.55851809    -0.28480
C88         C  0.04491778  0.06894402  0.57420123    -0.04590
C89         C  0.02489226  0.06547563  0.56977988     0.07630
C90         C  0.01839235  0.09758191  0.55063607     0.01430
H91         H  0.05508472  0.04934532  0.58855271     0.09080
H92         H  0.00348901  0.10521167  0.54267646     0.08160
N93         N  0.10174466  0.15739657  0.55922127    -0.35680
N94         N  0.10278046  0.19238837  0.55096700    -0.27860
C95         C  0.12157692  0.20275671  0.55537385    -0.03100
C96         C  0.13263479  0.17271272  0.56654158     0.05510
C97         C  0.11964909  0.14460736  0.56848947     0.03600
H98         H  0.12683166  0.22981784  0.54962259     0.08710
H99         H  0.12298986  0.11670859  0.57577088     0.07540
C100        C  0.82669702  0.96813821  0.49232503     0.03580
C101        C  0.81165407  0.96987439  0.52698475    -0.12570
C102        C  0.79457169  0.98985773  0.51797869     0.01080
C103        C  0.79233181  0.00639431  0.47189667    -0.11100
C104        C  0.80661221  0.00240868  0.43536525     0.03570
C105        C  0.82385419  0.98355992  0.44613194    -0.10520
H106        H  0.81370761  0.95645139  0.56176220     0.09160
H107        H  0.77975270  0.02307520  0.46444751     0.06690
H108        H  0.83559446  0.98286794  0.41956242     0.06540
N109        N  0.98788014  0.85306495  0.57095024    -0.26840
N110        N  0.00330449  0.87075487  0.58718369    -0.34700
C111        C  0.01897806  0.84913413  0.58685391     0.01500
C112        C  0.01320625  0.81605473  0.57012966     0.07520
C113        C  0.99340104  0.81925628  0.56064151    -0.05580
H114        H  0.03357698  0.85727195  0.59699076     0.08190
H115        H  0.98388674  0.79896764  0.54553146     0.09390
Cu116      Cu  0.00391637  0.92425009  0.60384018     0.44170
Cu117      Cu  0.96050529  0.87649756  0.55880689     0.41990
Cu118      Cu  0.96131228  0.97296681  0.57672943     0.43880
N119        N  0.00381593  0.97899138  0.59838034    -0.34230
N120        N  0.98794904  0.99725634  0.58703669    -0.28480
C121        C  0.99289307  0.03137001  0.57728964    -0.04590
C122        C  0.01288190  0.03444146  0.58261547     0.07630
C123        C  0.01936026  0.00083034  0.59629652     0.01430
H124        H  0.98286184  0.05170579  0.56431310     0.09080
H125        H  0.03433579  0.99220104  0.60076852     0.08160
N126        N  0.93663947  0.94437736  0.55894230    -0.35680
N127        N  0.93599776  0.90949824  0.55030095    -0.27860
C128        C  0.91757662  0.90071669  0.53741490    -0.03100
C129        C  0.90624689  0.93161512  0.53885135     0.05510
C130        C  0.91885483  0.95856227  0.55263873     0.03600
H131        H  0.91272109  0.87385115  0.52880725     0.08710
H132        H  0.91540890  0.98670030  0.55721201     0.07540
C133        C  0.83512556  0.11130506  0.20710481     0.03580
C134        C  0.82951654  0.09241009  0.24912027    -0.12570
C135        C  0.81069324  0.07850686  0.25358958     0.01080
C136        C  0.79727868  0.08307728  0.21554233    -0.11100
C137        C  0.80236656  0.10290710  0.17332855     0.03570
C138        C  0.82132807  0.11756563  0.17008654    -0.10520
H139        H  0.84000233  0.08775790  0.27814802     0.09160
H140        H  0.78305349  0.07064755  0.21880251     0.06690
H141        H  0.82561486  0.13311717  0.13840449     0.06540
N142        N  0.99594350  0.22980852  0.15196061    -0.26840
N143        N  0.01279560  0.21488844  0.13950678    -0.34700
C144        C  0.02682842  0.24027218  0.14066817     0.01500
C145        C  0.01835978  0.27269951  0.15348277     0.07520
C146        C  0.99879434  0.26502954  0.16021924    -0.05580
H147        H  0.04191098  0.23582489  0.13060229     0.08190
H148        H  0.98738829  0.28378002  0.17001451     0.09390
Cu149      Cu  0.01588884  0.16161400  0.11572850     0.44170
Cu150      Cu  0.96936600  0.20271014  0.15725377     0.41990
Cu151      Cu  0.97190715  0.11048563  0.12119565     0.43880
N152        N  0.01357654  0.10919989  0.08829353    -0.34230
N153        N  0.99714013  0.09076061  0.09090451    -0.28480
C154        C  0.99948518  0.05873908  0.06924260    -0.04590
C155        C  0.01834586  0.05666717  0.05181726     0.07630
C156        C  0.02693390  0.08912354  0.06454261     0.01430
H157        H  0.98814948  0.03870519  0.06582583     0.09080
H158        H  0.04168890  0.09767136  0.05658050     0.08160
N159        N  0.94702149  0.13395326  0.14815988    -0.35680
N160        N  0.94556016  0.16796328  0.16105455    -0.27860
C161        C  0.92709480  0.17423950  0.17597773    -0.03100
C162        C  0.91663276  0.14240489  0.17260355     0.05510
C163        C  0.92978692  0.11766032  0.15448656     0.03600
H164        H  0.92175575  0.19988079  0.18875567     0.08710
H165        H  0.92702795  0.08990752  0.14536051     0.07540
C166        C  0.20965146  0.98217649  0.87568160     0.03580
C167        C  0.21500258  0.00122482  0.83358555    -0.12570
C168        C  0.23308967  0.01834408  0.83058842     0.01080
C169        C  0.24610185  0.01640220  0.86992608    -0.11100
C170        C  0.24138439  0.99619776  0.91201524     0.03570
C171        C  0.22315773  0.97849936  0.91396640    -0.10520
H172        H  0.20470538  0.00400422  0.80371098     0.09160
H173        H  0.25967894  0.03120599  0.86786743     0.06690
H174        H  0.21913835  0.96272102  0.94569178     0.06540
N175        N  0.05038214  0.85115169  0.93261926    -0.26840
N176        N  0.03358561  0.86655652  0.94452968    -0.34700
C177        C  0.01954198  0.84124090  0.94591536     0.01500
C178        C  0.02786694  0.80829389  0.93538779     0.07520
C179        C  0.04742718  0.81559083  0.92726524    -0.05580
H180        H  0.00452401  0.84621068  0.95613531     0.08190
H181        H  0.05873870  0.79638919  0.91845493     0.09390
Cu182      Cu  0.03023002  0.92050175  0.96460883     0.44170
Cu183      Cu  0.07698864  0.87835088  0.92431758     0.41990
Cu184      Cu  0.07335308  0.97189859  0.95545230     0.43880
N185        N  0.03200998  0.97354597  0.98956525    -0.34230
N186        N  0.04830147  0.99226029  0.98577836    -0.28480
C187        C  0.04590162  0.02455820  0.00665386    -0.04590
C188        C  0.02712364  0.02650155  0.02471769     0.07630
C189        C  0.01865849  0.99369560  0.01318357     0.01430
H190        H  0.05715705  0.04481131  0.00926558     0.09080
H191        H  0.00404683  0.98487111  0.02218603     0.08160
N192        N  0.09843235  0.94843592  0.92976349    -0.35680
N193        N  0.10045885  0.91417420  0.91864783    -0.27860
C194        C  0.11912745  0.90855087  0.90451937    -0.03100
C195        C  0.12912926  0.94104787  0.90687364     0.05510
C196        C  0.11541277  0.96545881  0.92311493     0.03600
H197        H  0.12486421  0.88289841  0.89296076     0.08710
H198        H  0.11762414  0.99363803  0.93068699     0.07540
C199        C  0.20932781  0.47910606  0.20469591     0.03580
C200        C  0.21420362  0.49762880  0.24747396    -0.12570
C201        C  0.23225502  0.51509948  0.25153584     0.01080
C202        C  0.24567135  0.51358014  0.21281905    -0.11100
C203        C  0.24117295  0.49404474  0.17046342     0.03570
C204        C  0.22301690  0.47692501  0.16669978    -0.10520
H205        H  0.20353876  0.50023147  0.27655820     0.09160
H206        H  0.25956057  0.52730468  0.21581116     0.06690
H207        H  0.21929382  0.46275955  0.13342989     0.06540
N208        N  0.04974074  0.35192880  0.15967628    -0.26840
N209        N  0.03299393  0.36683958  0.14626816    -0.34700
C210        C  0.01922555  0.34109506  0.14384993     0.01500
C211        C  0.02772399  0.30839565  0.15518996     0.07520
C212        C  0.04707709  0.31626031  0.16489885    -0.05580
H213        H  0.00431710  0.34560346  0.13233748     0.08190
H214        H  0.05844282  0.29739790  0.17470635     0.09390
Cu215      Cu  0.02954233  0.42065249  0.12530834     0.44170
Cu216      Cu  0.07585400  0.38000094  0.16977632     0.41990
Cu217      Cu  0.07237034  0.47327164  0.13590825     0.43880
N218        N  0.03129875  0.47358137  0.09950096    -0.34230
N219        N  0.04740070  0.49273858  0.10403213    -0.28480
C220        C  0.04501159  0.52481514  0.08227899    -0.04590
C221        C  0.02645580  0.52613873  0.06282236     0.07630
C222        C  0.01809486  0.49321205  0.07446473     0.01430
H223        H  0.05615957  0.54529990  0.07990957     0.09080
H224        H  0.00367211  0.48394486  0.06457852     0.08160
N225        N  0.09752305  0.44976345  0.16116926    -0.35680
N226        N  0.09928077  0.41573154  0.17419372    -0.27860
C227        C  0.11808622  0.40948013  0.18631320    -0.03100
C228        C  0.12849522  0.44107375  0.17957324     0.05510
C229        C  0.11492790  0.46592576  0.16396834     0.03600
H230        H  0.12389585  0.38362390  0.19703711     0.08710
H231        H  0.11753951  0.49370974  0.15438549     0.07540
C232        C  0.83594582  0.60662406  0.87316197     0.03580
C233        C  0.83050896  0.58832354  0.83062985    -0.12570
C234        C  0.81188527  0.57353582  0.82602888     0.01080
C235        C  0.79836359  0.57717152  0.86403002    -0.11100
C236        C  0.80311718  0.59688449  0.90631162     0.03570
C237        C  0.82204917  0.61153109  0.91040161    -0.10520
H238        H  0.84098026  0.58473689  0.80129355     0.09160
H239        H  0.78435964  0.56396340  0.86077290     0.06690
H240        H  0.82618540  0.62598529  0.94302867     0.06540
N241        N  0.99556674  0.73015522  0.93689433    -0.26840
N242        N  0.01235526  0.71485730  0.94908031    -0.34700
C243        C  0.02648534  0.74004882  0.94865192     0.01500
C244        C  0.01819334  0.77280885  0.93656128     0.07520
C245        C  0.99858371  0.76551059  0.92949960    -0.05580
H246        H  0.04154143  0.73517026  0.95857048     0.08190
H247        H  0.98728728  0.78456986  0.91989799     0.09390
Cu248      Cu  0.01534491  0.66119836  0.97127062     0.44170
Cu249      Cu  0.96899406  0.70289075  0.93027775     0.41990
Cu250      Cu  0.97215479  0.60888720  0.96036711     0.43880
N251        N  0.01317473  0.60840648  0.99746071    -0.34230
N252        N  0.99701935  0.58938491  0.99289493    -0.28480
C253        C  0.99931080  0.55732351  0.01480732    -0.04590
C254        C  0.01784711  0.55589626  0.03439043     0.07630
C255        C  0.02629350  0.58872060  0.02266428     0.01430
H256        H  0.98813054  0.53689300  0.01709779     0.09080
H257        H  0.04074475  0.59786277  0.03250444     0.08160
N258        N  0.94735097  0.63280153  0.93345628    -0.35680
N259        N  0.94555658  0.66733355  0.92330455    -0.27860
C260        C  0.92707812  0.67356721  0.90834964    -0.03100
C261        C  0.91700288  0.64119372  0.90871739     0.05510
C262        C  0.93036408  0.61616032  0.92515205     0.03600
H263        H  0.92146416  0.69956044  0.89759090     0.08710
H264        H  0.92786593  0.58791804  0.93193493     0.07540
C265        C  0.32592975  0.46341408  0.97740973     0.03580
C266        C  0.32196388  0.47958729  0.93220477    -0.12570
C267        C  0.30450831  0.49859797  0.92496882     0.01080
C268        C  0.29075309  0.50055374  0.96291218    -0.11100
C269        C  0.29429306  0.48310204  0.00762747     0.03570
C270        C  0.31194893  0.46473899  0.01469559    -0.10520
H271        H  0.33313034  0.47993049  0.90408125     0.09160
H272        H  0.27747453  0.51595540  0.95784929     0.06690
H273        H  0.31528492  0.45320050  0.05016434     0.06540
N274        N  0.48752019  0.35225756  0.05498751    -0.26840
N275        N  0.50365184  0.37160791  0.05803762    -0.34700
C276        C  0.51907960  0.35005669  0.06447788     0.01500
C277        C  0.51252182  0.31529044  0.06613909     0.07520
C278        C  0.49241449  0.31739332  0.06031941    -0.05580
H279        H  0.53403247  0.35918128  0.06704509     0.08190
H280        H  0.48224051  0.29524852  0.05841073     0.09390
Cu281      Cu  0.50555936  0.42586495  0.04992805     0.44170
Cu282      Cu  0.46013387  0.37490714  0.03973522     0.41990
Cu283      Cu  0.46419617  0.47183111  0.01256587     0.43880
N284        N  0.50677551  0.47838358  0.02927081    -0.34230
N285        N  0.49119016  0.49601136  0.01437982    -0.28480
C286        C  0.49648493  0.52927610  0.00081269    -0.04590
C287        C  0.51643873  0.53228317  0.00742443     0.07630
C288        C  0.52250430  0.49958138  0.02558343     0.01430
H289        H  0.48659969  0.54950769  0.98686334     0.09080
H290        H  0.53721626  0.49157408  0.03497017     0.08160
N291        N  0.43848609  0.44321996  0.01372932    -0.35680
N292        N  0.43648604  0.40846588  0.02260955    -0.27860
C293        C  0.41730180  0.40021155  0.02027721    -0.03100
C294        C  0.40695279  0.43144954  0.01030061     0.05510
C295        C  0.42091170  0.45789875  0.00611483     0.03600
H296        H  0.41130401  0.37376315  0.02673243     0.08710
H297        H  0.41852838  0.48600318  0.99801426     0.07540
C298        C  0.71428993  0.63458891  0.09004432     0.03580
C299        C  0.72955458  0.63411077  0.05583648    -0.12570
C300        C  0.74643907  0.61325507  0.06376315     0.01080
C301        C  0.74816396  0.59418600  0.10813254    -0.11100
C302        C  0.73352867  0.59650406  0.14384467     0.03570
C303        C  0.71664634  0.61663305  0.13469350    -0.10520
H304        H  0.72778215  0.64899352  0.02206287     0.09160
H305        H  0.76040842  0.57639874  0.11444756     0.06690
H306        H  0.70482084  0.61631643  0.16106681     0.06540
N307        N  0.55217092  0.74619545  0.01383702    -0.26840
N308        N  0.53704755  0.72769181  0.99757227    -0.34700
C309        C  0.52119083  0.74880533  0.99594470     0.01500
C310        C  0.52653044  0.78246358  0.01127259     0.07520
C311        C  0.54627263  0.78010363  0.02212536    -0.05580
H312        H  0.50682728  0.74010487  0.98464241     0.08190
H313        H  0.55552911  0.80119701  0.03616339     0.09390
Cu314      Cu  0.53729970  0.67422593  0.98146621     0.44170
Cu315      Cu  0.57970781  0.72364676  0.02715559     0.41990
Cu316      Cu  0.57971976  0.62630570  0.01165350     0.43880
N317        N  0.53769511  0.61956089  0.98572466    -0.34230
N318        N  0.55341514  0.60138589  0.99849746    -0.28480
C319        C  0.54846835  0.56696979  0.00621843    -0.04590
C320        C  0.52863156  0.56370457  0.99799753     0.07630
C321        C  0.52227036  0.59746635  0.98482871     0.01430
H322        H  0.55833846  0.54645836  0.01945895     0.09080
H323        H  0.50738153  0.60593671  0.97840816     0.08160
N324        N  0.60410341  0.65618469  0.02845272    -0.35680
N325        N  0.60446336  0.69123185  0.03604704    -0.27860
C326        C  0.62289404  0.70081710  0.04777592    -0.03100
C327        C  0.63451898  0.67029547  0.04662124     0.05510
C328        C  0.62208497  0.64272125  0.03424002     0.03600
H329        H  0.62756499  0.72798226  0.05522093     0.08710
H330        H  0.62581383  0.61467253  0.03003695     0.07540
C331        C  0.71295116  0.14187699  0.99054179     0.03580
C332        C  0.72807100  0.14160397  0.02511296    -0.12570
C333        C  0.74517030  0.12136438  0.01745948     0.01080
C334        C  0.74752871  0.10356425  0.97246051    -0.11100
C335        C  0.73302722  0.10562432  0.93644037     0.03570
C336        C  0.71573832  0.12453463  0.94570352    -0.10520
H337        H  0.72601985  0.15621740  0.05884989     0.09160
H338        H  0.76018471  0.08680701  0.96596636     0.06690
H339        H  0.70396825  0.12364537  0.91926939     0.06540
N340        N  0.55014300  0.24633928  0.06913867    -0.26840
N341        N  0.53463978  0.22782556  0.08317991    -0.34700
C342        C  0.51893817  0.24936778  0.08422197     0.01500
C343        C  0.52480792  0.28327254  0.07082448     0.07520
C344        C  0.54467284  0.28060930  0.06173856    -0.05580
H345        H  0.50432211  0.24078655  0.09363911     0.08190
H346        H  0.55430778  0.30174334  0.04927436     0.09390
Cu347      Cu  0.53441860  0.17387768  0.09684618     0.44170
Cu348      Cu  0.57761988  0.22347045  0.05707048     0.41990
Cu349      Cu  0.57773502  0.12603877  0.07086860     0.43880
N350        N  0.53506238  0.11922735  0.09178622    -0.34230
N351        N  0.55105811  0.10116471  0.08099637    -0.28480
C352        C  0.54628176  0.06674932  0.07281593    -0.04590
C353        C  0.52628876  0.06335765  0.07855484     0.07630
C354        C  0.51965169  0.09706422  0.09081118     0.01430
H355        H  0.55643226  0.04629549  0.06094818     0.09080
H356        H  0.50464849  0.10542895  0.09560136     0.08160
N357        N  0.60227840  0.15633781  0.05545543    -0.35680
N358        N  0.60247426  0.19149139  0.04842399    -0.27860
C359        C  0.62084383  0.20162761  0.03693895    -0.03100
C360        C  0.63266964  0.17140678  0.03776825     0.05510
C361        C  0.62037714  0.14333348  0.04950887     0.03600
H362        H  0.62532430  0.22895863  0.02960474     0.08710
H363        H  0.62425201  0.11527313  0.05283257     0.07540
C364        C  0.32487382  0.95273974  0.10838786     0.03580
C365        C  0.31246565  0.95944710  0.06862553    -0.12570
C366        C  0.29594163  0.98176257  0.07398100     0.01080
C367        C  0.29274822  0.99890778  0.11925590    -0.11100
C368        C  0.30455289  0.99106596  0.16001945     0.03570
C369        C  0.31923019  0.96495860  0.15464883    -0.10520
H370        H  0.31604812  0.94823296  0.03338678     0.09160
H371        H  0.28163475  0.01943170  0.12168724     0.06690
H372        H  0.32789864  0.95687856  0.18586282     0.06540
N373        N  0.48826328  0.85011852  0.02255842    -0.26840
N374        N  0.50425725  0.86997738  0.02225195    -0.34700
C375        C  0.52003696  0.84897754  0.01828501     0.01500
C376        C  0.51387293  0.81402934  0.01537597     0.07520
C377        C  0.49362947  0.81545899  0.01792121    -0.05580
H378        H  0.53492886  0.85862404  0.01774343     0.08190
H379        H  0.48363008  0.79299904  0.01770636     0.09390
Cu380      Cu  0.50530260  0.92429512  0.02942732     0.44170
Cu381      Cu  0.46029712  0.87195958  0.03285158     0.41990
Cu382      Cu  0.46252782  0.96998150  0.05546267     0.43880
N383        N  0.50552863  0.97729963  0.04705841    -0.34230
N384        N  0.48943873  0.99502850  0.05769535    -0.28480
C385        C  0.49423290  0.02865506  0.07068751    -0.04590
C386        C  0.51436436  0.03175736  0.06801917     0.07630
C387        C  0.52103966  0.99874034  0.05283093     0.01430
H388        H  0.48389687  0.04906024  0.08167943     0.09080
H389        H  0.53602874  0.99062917  0.04706053     0.08160
N390        N  0.43733394  0.93936266  0.05581168    -0.35680
N391        N  0.43598216  0.90436798  0.04825930    -0.27860
C392        C  0.41715145  0.89445030  0.05459571    -0.03100
C393        C  0.40636752  0.92462738  0.06728998     0.05510
C394        C  0.41969199  0.95243756  0.06701103     0.03600
H395        H  0.41185818  0.86717642  0.05199243     0.08710
H396        H  0.41689413  0.98038451  0.07498622     0.07540
C397        C  0.33156842  0.62078274  0.70424743     0.03580
C398        C  0.31765701  0.62379515  0.66684669    -0.12570
C399        C  0.29975026  0.60543402  0.66966881     0.01080
C400        C  0.29551024  0.58538589  0.71210686    -0.11100
C401        C  0.30877120  0.58422562  0.75109738     0.03570
C402        C  0.32678277  0.60184115  0.74693192    -0.10520
H403        H  0.32105291  0.64010115  0.63513772     0.09160
H404        H  0.28200970  0.57039769  0.71488750     0.06690
H405        H  0.33747146  0.59910966  0.77591141     0.06540
N406        N  0.49267827  0.74212261  0.65658143    -0.26840
N407        N  0.50909720  0.72688549  0.64152528    -0.34700
C408        C  0.52304324  0.75226044  0.63794211     0.01500
C409        C  0.51497933  0.78508729  0.65025179     0.07520
C410        C  0.49571223  0.77765926  0.66174363    -0.05580
H411        H  0.53770712  0.74747189  0.62476130     0.08190
H412        H  0.48462368  0.79677034  0.67247261     0.09390
Cu413      Cu  0.51160128  0.67335000  0.61930424     0.44170
Cu414      Cu  0.46642472  0.71469683  0.66816788     0.41990
Cu415      Cu  0.46771446  0.62284688  0.62703952     0.43880
N416        N  0.50894555  0.62136093  0.59132613    -0.34230
N417        N  0.49251267  0.60298005  0.59450994    -0.28320
C418        C  0.49459678  0.57131656  0.57168517    -0.04590
C419        C  0.51328200  0.56953855  0.55293441     0.07630
C420        C  0.52202555  0.60170879  0.56610110     0.01430
H421        H  0.48320410  0.55138897  0.56829817     0.09080
H422        H  0.53667474  0.61043261  0.55730507     0.08160
N423        N  0.44333182  0.64676247  0.65633655    -0.35680
N424        N  0.44245615  0.68012875  0.67244036    -0.27860
C425        C  0.42399110  0.68691521  0.68712852    -0.03100
C426        C  0.41286094  0.65637450  0.67904023     0.05510
C427        C  0.42565510  0.63162940  0.65960578     0.03600
H428        H  0.41886224  0.71258569  0.70032619     0.08710
H429        H  0.42227840  0.60469756  0.64759996     0.07540
C430        C  0.70497133  0.48457137  0.37579341     0.03580
C431        C  0.71922451  0.48217120  0.41232679    -0.12570
C432        C  0.73755284  0.49869047  0.40648748     0.01080
C433        C  0.74162188  0.51646342  0.36197640    -0.11100
C434        C  0.72772128  0.51769104  0.32423783     0.03570
C435        C  0.70939167  0.50179697  0.33166774    -0.10520
H436        H  0.71581156  0.46732413  0.44529391     0.09160
H437        H  0.75554473  0.52955630  0.35651755     0.06690
H438        H  0.69818805  0.50431634  0.30390337     0.06540
N439        N  0.54425129  0.36627686  0.42708124    -0.26840
N440        N  0.52755721  0.38138588  0.44034605    -0.34700
C441        C  0.51367468  0.35584829  0.44266761     0.01500
C442        C  0.52206340  0.32310154  0.43131146     0.07520
C443        C  0.54145397  0.33070673  0.42172421    -0.05580
H444        H  0.49876054  0.36052556  0.45403407     0.08190
H445        H  0.55276022  0.31174340  0.41196915     0.09390
Cu446      Cu  0.52442341  0.43516272  0.46101320     0.44170
Cu447      Cu  0.57045167  0.39391904  0.41763558     0.41990
Cu448      Cu  0.56786195  0.48709990  0.45166790     0.43880
N449        N  0.52651313  0.48782953  0.48694732    -0.34230
N450        N  0.54276480  0.50667992  0.48301384    -0.28480
C451        C  0.54046057  0.53854868  0.50511313    -0.04590
C452        C  0.52181855  0.54003345  0.52413573     0.07630
C453        C  0.51331240  0.50744645  0.51187453     0.01430
H454        H  0.55172749  0.55875252  0.50807522     0.09080
H455        H  0.49880397  0.49833641  0.52138961     0.08160
N456        N  0.59288476  0.46275458  0.42678800    -0.35680
N457        N  0.59420474  0.42872190  0.41378294    -0.27860
C458        C  0.61288900  0.42164558  0.40154218    -0.03100
C459        C  0.62374430  0.45267992  0.40810831     0.05510
C460        C  0.61051457  0.47813417  0.42376628     0.03600
H461        H  0.61829074  0.39560904  0.39051114     0.08710
H462        H  0.61345409  0.50584908  0.43281431     0.07540
C463        C  0.32979836  0.12512766  0.37507978     0.03580
C464        C  0.31590351  0.12730668  0.41236913    -0.12570
C465        C  0.29811329  0.10884904  0.40840338     0.01080
C466        C  0.29441474  0.08753025  0.36696540    -0.11100
C467        C  0.30819414  0.08568454  0.32889890     0.03570
C468        C  0.32524468  0.10650407  0.33229724    -0.10520
H469        H  0.31941277  0.14141553  0.44582754     0.09160
H470        H  0.28116225  0.07175266  0.36514947     0.06690
H471        H  0.33585523  0.10621548  0.30290654     0.06540
N472        N  0.48995199  0.24513100  0.43495807    -0.26840
N473        N  0.50691249  0.22949036  0.44452504    -0.34700
C474        C  0.52106618  0.25462747  0.44289007     0.01500
C475        C  0.51255708  0.28757196  0.43271321     0.07520
C476        C  0.49285611  0.28049883  0.42801861    -0.05580
H477        H  0.53629824  0.24957995  0.45075764     0.08190
H478        H  0.48139368  0.29973382  0.42054571     0.09390
Cu479      Cu  0.51006185  0.17540803  0.46489494     0.44170
Cu480      Cu  0.46314819  0.21899096  0.43195208     0.41990
Cu481      Cu  0.46548541  0.12594839  0.46497117     0.43880
N482        N  0.50793609  0.12222914  0.48989633    -0.34230
N483        N  0.49128350  0.10436866  0.48948751    -0.28480
C484        C  0.49391498  0.07165028  0.50924936    -0.04590
C485        C  0.51319689  0.06855637  0.52309402     0.07630
C486        C  0.52171934  0.10110225  0.51024150     0.01430
H487        H  0.48249895  0.05189606  0.51402776     0.09080
H488        H  0.53671935  0.10906139  0.51604679     0.08160
N489        N  0.44035492  0.15099378  0.44222522    -0.35680
N490        N  0.43901342  0.18523038  0.43012242    -0.27860
C491        C  0.42050940  0.19219469  0.41612447    -0.03100
C492        C  0.40984901  0.16058397  0.41954194     0.05510
C493        C  0.42298390  0.13522656  0.43636474     0.03600
H494        H  0.41542991  0.21796574  0.40298937     0.08710
H495        H  0.42021893  0.10713874  0.44370236     0.07540
C496        C  0.70500451  0.99339297  0.70676603     0.03580
C497        C  0.71927859  0.98964305  0.67041444    -0.12570
C498        C  0.73787953  0.00534034  0.67579244     0.01080
C499        C  0.74205476  0.02424365  0.71921249    -0.11100
C500        C  0.72816807  0.02659005  0.75690350     0.03570
C501        C  0.70968172  0.01134385  0.75003248    -0.10520
H502        H  0.71562190  0.97521873  0.63739976     0.09160
H503        H  0.75599739  0.03736571  0.72382515     0.06690
H504        H  0.69863578  0.01420366  0.77815847     0.06540
N505        N  0.54691698  0.86349917  0.64381643    -0.26840
N506        N  0.52990208  0.87847694  0.63282434    -0.34700
C507        C  0.51588630  0.85312273  0.63520015     0.01500
C508        C  0.52448012  0.82063213  0.64727878     0.07520
C509        C  0.54414268  0.82821406  0.65228638    -0.05580
H510        H  0.50067074  0.85768602  0.62662028     0.08190
H511        H  0.55563767  0.80940511  0.66130805     0.09390
Cu512      Cu  0.52620266  0.93185463  0.60967012     0.44170
Cu513      Cu  0.57355370  0.89076509  0.64775300     0.41990
Cu514      Cu  0.56985327  0.98288452  0.61129678     0.43880
N515        N  0.52782404  0.98454113  0.58252455    -0.34230
N516        N  0.54430113  0.00289539  0.58345380    -0.28480
C517        C  0.54160432  0.03525636  0.56279512    -0.04590
C518        C  0.52243669  0.03768865  0.54785025     0.07630
C519        C  0.51404291  0.00505145  0.56093974     0.01430
H520        H  0.55286462  0.05538873  0.55870105     0.09080
H521        H  0.49911837  0.99674350  0.55483144     0.08160
N522        N  0.59496719  0.96054300  0.63835539    -0.35680
N523        N  0.59695409  0.92660476  0.65148413    -0.27860
C524        C  0.61539514  0.92156757  0.66752323    -0.03100
C525        C  0.62520203  0.95417061  0.66471236     0.05510
C526        C  0.61176340  0.97801074  0.64568848     0.03600
H527        H  0.62109433  0.89636849  0.68115017     0.08710
H528        H  0.61399416  0.00607678  0.63715825     0.07540
C529        C  0.66943247  0.00623199  0.70655500    -0.20860
C530        C  0.68462265  0.98177400  0.69808045    -0.08900
C531        C  0.68007756  0.94723914  0.68078558     0.29950
C532        C  0.66061828  0.93778812  0.67148034    -0.20860
C533        C  0.64552275  0.96277420  0.67864263    -0.08920
C534        C  0.65012408  0.99696265  0.69707182     0.29960
F535        F  0.63596209  0.02146912  0.70655357    -0.19440
H536        H  0.67256569  0.03298543  0.71980745     0.18330
H537        H  0.65740420  0.91130898  0.65742140     0.18330
F538        F  0.69438257  0.92264967  0.67326842    -0.19430
C539        C  0.35509013  0.17073871  0.39934058    -0.20860
C540        C  0.35024263  0.13590401  0.38412225    -0.08900
C541        C  0.36507309  0.11004176  0.37987761     0.29950
C542        C  0.38431758  0.11885136  0.39021610    -0.20860
C543        C  0.38933300  0.15347547  0.40574387    -0.08920
C544        C  0.37455892  0.17963808  0.40982035     0.29960
F545        F  0.37874562  0.21319794  0.42574886    -0.19440
H546        H  0.34379541  0.19086449  0.40341161     0.18330
H547        H  0.39531583  0.09817419  0.38640959     0.18330
F548        F  0.36085838  0.07560913  0.36783865    -0.19430
C549        C  0.67501027  0.48739465  0.42646868    -0.20860
C550        C  0.68475350  0.47298136  0.38595856    -0.08900
C551        C  0.67464493  0.44993569  0.35421771     0.29950
C552        C  0.65491282  0.44214211  0.36259251    -0.20860
C553        C  0.64496858  0.45791777  0.40197571    -0.08920
C554        C  0.65529712  0.48019787  0.43433854     0.29960
F555        F  0.64638099  0.49502399  0.47374255    -0.19440
H556        H  0.68255409  0.50528465  0.45123030     0.18330
H557        H  0.64722578  0.42486453  0.33733862     0.18330
F558        F  0.68381157  0.43527340  0.31506256    -0.19430
C559        C  0.36171232  0.65324977  0.73245234    -0.20860
C560        C  0.35180828  0.63362907  0.69628930    -0.08900
C561        C  0.36190423  0.62365923  0.65364148     0.29950
C562        C  0.38155815  0.63227914  0.64799589    -0.20860
C563        C  0.39159473  0.65120337  0.68438697    -0.08920
C564        C  0.38145371  0.66229961  0.72640854     0.29960
F565        F  0.39086167  0.68000534  0.76268564    -0.19440
H566        H  0.35423407  0.66099502  0.76569259     0.18330
H567        H  0.38908395  0.62350017  0.61529884     0.18330
F568        F  0.35310003  0.60372039  0.61854842    -0.19430
C569        C  0.32187176  0.01957358  0.23022052    -0.20860
C570        C  0.30418439  0.01353383  0.20546543    -0.08900
C571        C  0.28716532  0.03033429  0.22378099     0.29950
C572        C  0.28829100  0.05356503  0.26421610    -0.20860
C573        C  0.30621772  0.05966094  0.28790681    -0.08920
C574        C  0.32275676  0.04084022  0.27156054     0.29960
F575        F  0.34001530  0.04253198  0.29571561    -0.19440
H576        H  0.33550162  0.00838915  0.21746017     0.18330
H577        H  0.27520339  0.06710922  0.27654783     0.18330
F578        F  0.26945492  0.02424762  0.20329931    -0.19430
C579        C  0.37091823  0.90749245  0.05776179    -0.20860
C580        C  0.38549998  0.92763179  0.08128692    -0.08900
C581        C  0.37990745  0.95284506  0.11671187     0.29950
C582        C  0.36029699  0.95950789  0.12589644    -0.20860
C583        C  0.34550297  0.94083630  0.10101530    -0.08920
C584        C  0.35102756  0.91406490  0.06736436     0.29960
F585        F  0.33732080  0.89450481  0.04360697    -0.19440
H586        H  0.37489582  0.88763907  0.03069673     0.18330
H587        H  0.35676604  0.98060687  0.15153590     0.18330
F588        F  0.39340152  0.97148935  0.14257413    -0.19430
C589        C  0.74141576  0.09938640  0.84810489    -0.20860
C590        C  0.73455018  0.08401181  0.89168514    -0.08900
C591        C  0.72741221  0.04879144  0.89151561     0.29950
C592        C  0.72641176  0.02968605  0.84784290    -0.20860
C593        C  0.73233381  0.04547689  0.80346993    -0.08920
C594        C  0.74039803  0.08026824  0.80415029     0.29960
F595        F  0.74608011  0.09669013  0.76213347    -0.19440
H596        H  0.74686159  0.12667473  0.84788111     0.18330
H597        H  0.72038203  0.00281582  0.84841457     0.18330
F598        F  0.72058286  0.03351933  0.93328600    -0.19430
C599        C  0.68488752  0.14033723  0.04791915    -0.20860
C600        C  0.69319114  0.15423207  0.00491154    -0.08900
C601        C  0.68185136  0.17667678  0.97467698     0.29950
C602        C  0.66234978  0.18409784  0.98687707    -0.20860
C603        C  0.65385495  0.16847057  0.02858482    -0.08920
C604        C  0.66541775  0.14709163  0.05949484     0.29960
F605        F  0.65777742  0.13217472  0.10061357    -0.19440
H606        H  0.69326474  0.12276084  0.07156998     0.18330
H607        H  0.65362910  0.20057733  0.96257866     0.18330
F608        F  0.68950990  0.19079658  0.93307539    -0.19430
C609        C  0.72618309  0.52063664  0.23312073    -0.20860
C610        C  0.73174135  0.53662944  0.27747307    -0.08900
C611        C  0.73962158  0.57156821  0.27664395     0.29950
C612        C  0.74098514  0.59050879  0.23250293    -0.20860
C613        C  0.73466232  0.57486075  0.18880546    -0.08920
C614        C  0.72757901  0.53958318  0.18914960     0.29960
F615        F  0.72121543  0.52409791  0.14724021    -0.19440
H616        H  0.72024891  0.49369580  0.23273428     0.18330
H617        H  0.74631002  0.61787974  0.23260790     0.18330
F618        F  0.74482461  0.58829153  0.31865533    -0.19430
C619        C  0.66639838  0.64413581  0.02338838    -0.20860
C620        C  0.65571430  0.66642349  0.05479555    -0.08900
C621        C  0.66496010  0.68104897  0.09604434     0.29950
C622        C  0.68435775  0.67177672  0.10681961    -0.20860
C623        C  0.69482058  0.64852665  0.07598391    -0.08920
C624        C  0.68574799  0.63538669  0.03357397     0.29960
F625        F  0.69513992  0.61200576  0.00369305    -0.19440
H626        H  0.65951342  0.63251264  0.99150991     0.18330
H627        H  0.69105561  0.68192634  0.13985049     0.18330
F628        F  0.65488778  0.70217523  0.12755638    -0.19430
C629        C  0.30288899  0.55791898  0.88365429    -0.20860
C630        C  0.30217979  0.52038638  0.88027950    -0.08900
C631        C  0.30166629  0.50415423  0.83402538     0.29950
C632        C  0.30265971  0.52528391  0.79171039    -0.20860
C633        C  0.30458455  0.56269017  0.79521480    -0.08920
C634        C  0.30426181  0.57897496  0.84143942     0.29960
F635        F  0.30588976  0.61514063  0.84566782    -0.19440
H636        H  0.30342144  0.57076418  0.91910423     0.18330
H637        H  0.30292260  0.51237655  0.75628766     0.18330
F638        F  0.30085503  0.46788884  0.82996284    -0.19430
C639        C  0.35752413  0.47585300  0.01663823    -0.20860
C640        C  0.34603321  0.45243730  0.98905095    -0.08900
C641        C  0.35421319  0.42050046  0.97115625     0.29950
C642        C  0.37393184  0.41261404  0.98015818    -0.20860
C643        C  0.38566384  0.43696554  0.00603810    -0.08920
C644        C  0.37715834  0.46840264  0.02491769     0.29960
F645        F  0.38783660  0.49210455  0.05131693    -0.19440
H646        H  0.35135002  0.50054886  0.03068469     0.18330
H647        H  0.38022750  0.38833266  0.96522976     0.18330
F648        F  0.34324606  0.39742529  0.94449858    -0.19430
C649        C  0.79471242  0.60095278  0.99582739    -0.20860
C650        C  0.78861308  0.60119796  0.94667229    -0.08900
C651        C  0.76859044  0.60578273  0.93671707     0.29950
C652        C  0.75514694  0.60885559  0.97481989    -0.20860
C653        C  0.76122715  0.60919768  0.02396161    -0.08920
C654        C  0.78131672  0.60553340  0.03397167     0.29960
F655        F  0.78821226  0.60732010  0.08038981    -0.19440
H656        H  0.80993585  0.59716416  0.00504889     0.18330
H657        H  0.73984535  0.61094625  0.96543838     0.18330
F658        F  0.76189825  0.60841955  0.89015879    -0.19430
C659        C  0.87140050  0.59252526  0.86843384    -0.20860
C660        C  0.85665064  0.61724675  0.88008171    -0.08900
C661        C  0.86198220  0.65102911  0.89875461     0.29950
C662        C  0.88171554  0.65933600  0.90648558    -0.20860
C663        C  0.89635307  0.63401457  0.89618262    -0.08920
C664        C  0.89098293  0.60073450  0.87613019     0.29960
F665        F  0.90465107  0.57606745  0.86344344    -0.19440
H666        H  0.86774091  0.56630486  0.85412271     0.18330
H667        H  0.88551112  0.68517159  0.92178559     0.18330
F668        F  0.84819259  0.67603778  0.90914591    -0.19430
C669        C  0.26048973  0.45788688  0.11137956    -0.20860
C670        C  0.25509968  0.49170500  0.12937275    -0.08900
C671        C  0.26234649  0.52280066  0.10647065     0.29950
C672        C  0.27476447  0.51989924  0.06604406    -0.20860
C673        C  0.28031657  0.48602353  0.04849110    -0.08920
C674        C  0.27311236  0.45499216  0.07151248     0.29960
F675        F  0.27807365  0.42191618  0.05493313    -0.19440
H676        H  0.25494695  0.43366994  0.12845717     0.18330
H677        H  0.28029615  0.54407165  0.04883309     0.18330
F678        F  0.25703960  0.55586275  0.12241747    -0.19430
C679        C  0.17897423  0.47743254  0.15540738    -0.20860
C680        C  0.18917734  0.46606548  0.19708998    -0.08900
C681        C  0.17963863  0.44424354  0.23175048     0.29950
C682        C  0.16003692  0.43465025  0.22496413    -0.20860
C683        C  0.14967140  0.44739716  0.18419159    -0.08920
C684        C  0.15941899  0.46841734  0.14904676     0.29960
F685        F  0.15003389  0.48034870  0.10842947    -0.19440
H686        H  0.18601260  0.49436654  0.12837124     0.18330
H687        H  0.15275570  0.41844110  0.25239412     0.18330
F688        F  0.18922906  0.43244493  0.27212431    -0.19430
C689        C  0.27557474  0.99288710  0.94507211    -0.20860
C690        C  0.25534385  0.99419578  0.95386305    -0.08900
C691        C  0.24878976  0.99398271  0.00275974     0.29950
C692        C  0.26206464  0.99020536  0.04123301    -0.20860
C693        C  0.28225119  0.98790128  0.03234140    -0.08920
C694        C  0.28889075  0.99056419  0.98366256     0.29960
F695        F  0.30823546  0.99179903  0.97308215    -0.19440
H696        H  0.28121018  0.99338852  0.90809463     0.18330
H697        H  0.25643980  0.98868858  0.07819249     0.18330
F698        F  0.22961206  0.99825332  0.01379235    -0.19430
C699        C  0.18451851  0.93466967  0.89425280    -0.20860
C700        C  0.18915851  0.97024336  0.88161052    -0.08900
C701        C  0.17399182  0.99523101  0.87548393     0.29950
C702        C  0.15464897  0.98493885  0.88218655    -0.20860
C703        C  0.14983063  0.94958938  0.89558749    -0.08920
C704        C  0.16497662  0.92424435  0.90085968     0.29960
F705        F  0.16104421  0.88990923  0.91420007    -0.19440
H706        H  0.19603386  0.91505800  0.89915784     0.18330
H707        H  0.14340243  0.00504002  0.87727370     0.18330
F708        F  0.17791746  0.03011323  0.86477485    -0.19430
C709        C  0.77983583  0.11372251  0.04634351    -0.20860
C710        C  0.75985648  0.11696282  0.05741028    -0.08900
C711        C  0.75407613  0.11473235  0.10686933     0.29950
C712        C  0.76796712  0.11127165  0.14387442    -0.20860
C713        C  0.78793263  0.10785720  0.13290721    -0.08920
C714        C  0.79365996  0.10839801  0.08330858     0.29960
F715        F  0.81246480  0.10240877  0.07000006    -0.19440
H716        H  0.78485724  0.11501095  0.00884825     0.18330
H717        H  0.76292472  0.11099594  0.18138072     0.18330
F718        F  0.73495200  0.11435508  0.11984817    -0.19430
C719        C  0.88174027  0.16261852  0.17773350    -0.20860
C720        C  0.89585660  0.13562284  0.18432350    -0.08900
C721        C  0.88983644  0.10144029  0.20035632     0.29950
C722        C  0.87013431  0.09421991  0.20800472    -0.20860
C723        C  0.85594070  0.12076649  0.20014426    -0.08920
C724        C  0.86188498  0.15524947  0.18528756     0.29960
F725        F  0.84856946  0.18179186  0.17858355    -0.19440
H726        H  0.88602446  0.18915551  0.16556681     0.18330
H727        H  0.86590837  0.06745881  0.21945165     0.18330
F728        F  0.90296461  0.07494905  0.20939582    -0.19430
C729        C  0.78606865  0.99650693  0.60692739    -0.20860
C730        C  0.77988283  0.99494345  0.55787255    -0.08900
C731        C  0.75973648  0.99780451  0.54813073     0.29950
C732        C  0.74641213  0.00245051  0.58633931    -0.20860
C733        C  0.75255663  0.00259810  0.63547958    -0.08920
C734        C  0.77266927  0.99925768  0.64521695     0.29960
F735        F  0.77951961  0.99713464  0.69166413    -0.19440
H736        H  0.80140892  0.99525449  0.61615806     0.18330
H737        H  0.73114619  0.00556928  0.57712222     0.18330
F738        F  0.75264969  0.99477634  0.50202898    -0.19430
C739        C  0.79928626  0.05700266  0.38494595    -0.20860
C740        C  0.80450727  0.02052933  0.38728959    -0.08900
C741        C  0.80919747  0.00238267  0.34373750     0.29950
C742        C  0.80988649  0.02101627  0.29935653    -0.20860
C743        C  0.80577569  0.05781528  0.29773706    -0.08920
C744        C  0.79997381  0.07558225  0.34047383     0.29960
F745        F  0.79606021  0.11129935  0.33954894    -0.19440
H746        H  0.79571432  0.07160090  0.41793750     0.18330
H747        H  0.81449042  0.00712406  0.26657541     0.18330
F748        F  0.81364667  0.96687467  0.34434957    -0.19430
C749        C  0.85673064  0.93088337  0.47676475    -0.20860
C750        C  0.84626872  0.95477421  0.50669800    -0.08900
C751        C  0.85529874  0.96850921  0.54883446     0.29950
C752        C  0.87453165  0.95945029  0.55981058    -0.20860
C753        C  0.88518317  0.93636305  0.52942428    -0.08920
C754        C  0.87603240  0.92141767  0.48825292     0.29960
F755        F  0.88608804  0.89960656  0.45758547    -0.19440
H756        H  0.85007811  0.92020740  0.44398713     0.18330
H757        H  0.88132843  0.97132718  0.59163118     0.18330
F758        F  0.84596490  0.99255190  0.57784049    -0.19430
C759        C  0.26545921  0.08107467  0.51373174    -0.20860
C760        C  0.25894767  0.11458041  0.53053667    -0.08900
C761        C  0.26529730  0.14598886  0.50683967     0.29950
C762        C  0.27789261  0.14380802  0.46684721    -0.20860
C763        C  0.28415704  0.11033289  0.44948084    -0.08920
C764        C  0.27790430  0.07887283  0.47329561     0.29960
F765        F  0.28421107  0.04617349  0.45825270    -0.19440
H766        H  0.26063002  0.05660270  0.53148336     0.18330
H767        H  0.28274710  0.16830865  0.44920736     0.18330
F768        F  0.25951027  0.17877280  0.52281767    -0.19430
C769        C  0.23288972  0.09687084  0.74415454    -0.20860
C770        C  0.23737367  0.08011398  0.69957371    -0.08900
C771        C  0.24291368  0.04369866  0.69973152     0.29950
C772        C  0.24273609  0.02407002  0.74339716    -0.20860
C773        C  0.23730668  0.04053867  0.78733366    -0.08920
C774        C  0.23286323  0.07727003  0.78776227     0.29960
F775        F  0.22726337  0.09354530  0.82983176    -0.19440
H776        H  0.22867966  0.12489630  0.74487356     0.18330
H777        H  0.24589706  0.99558227  0.74261379     0.18330
F778        F  0.24701818  0.02639744  0.65735594    -0.19430
C779        C  0.16311461  0.17992153  0.61494641    -0.20860
C780        C  0.15387404  0.16927950  0.57166517    -0.08900
C781        C  0.16441277  0.15004069  0.53649294     0.29950
C782        C  0.18375020  0.14032292  0.54530065    -0.20860
C783        C  0.19288315  0.14933282  0.58959296    -0.08920
C784        C  0.18251069  0.16998498  0.62403569     0.29960
F785        F  0.19096915  0.17993069  0.66674815    -0.19440
H786        H  0.15502806  0.19442284  0.64262220     0.18330
H787        H  0.19127447  0.12415675  0.51837055     0.18330
F788        F  0.15569256  0.13935126  0.49444422    -0.19430
C789        C  0.27873623  0.61012104  0.54090490    -0.20860
C790        C  0.25858553  0.61206195  0.55018018    -0.08900
C791        C  0.25208809  0.61017298  0.59907339     0.29950
C792        C  0.26549519  0.60833319  0.63744846    -0.20860
C793        C  0.28566286  0.60691825  0.62821404    -0.08920
C794        C  0.29210515  0.60688428  0.57920440     0.29960
F795        F  0.31127053  0.60274031  0.56793008    -0.19440
H796        H  0.28424852  0.61119333  0.50382333     0.18330
H797        H  0.26000067  0.60817139  0.67456894     0.18330
F798        F  0.23276988  0.60906988  0.61004001    -0.19430
C799        C  0.23507977  0.59469952  0.33567464    -0.20860
C800        C  0.23670840  0.57779275  0.38146564    -0.08900
C801        C  0.23906451  0.54029977  0.38361336     0.29950
C802        C  0.23859190  0.52002582  0.34072187    -0.20860
C803        C  0.23617533  0.53688020  0.29523422    -0.08920
C804        C  0.23496253  0.57444346  0.29275940     0.29960
F805        F  0.23242005  0.59127501  0.24913422    -0.19440
H806        H  0.23329251  0.62354746  0.33334363     0.18330
H807        H  0.23937104  0.49102748  0.34306609     0.18330
F808        F  0.24045951  0.52306782  0.42727164    -0.19430
C809        C  0.18438842  0.64500866  0.53028721    -0.20860
C810        C  0.19399710  0.65369075  0.48637373    -0.08900
C811        C  0.18402567  0.67427388  0.45098253     0.29950
C812        C  0.16452010  0.68424736  0.45863449    -0.20860
C813        C  0.15475276  0.67364363  0.50137741    -0.08920
C814        C  0.16492896  0.65465164  0.53760225     0.29960
F815        F  0.15572050  0.64393939  0.57912160    -0.19440
H816        H  0.19160007  0.62888526  0.55791744     0.18330
H817        H  0.15674617  0.69859311  0.43016162     0.18330
F818        F  0.19294148  0.68386233  0.40857431    -0.19430
C819        C  0.77237579  0.49551235  0.43506795    -0.20860
C820        C  0.75239016  0.49712134  0.44650812    -0.08900
C821        C  0.74692023  0.49713642  0.49632116     0.29950
C822        C  0.76096941  0.49299770  0.53296888    -0.20860
C823        C  0.78093948  0.49083739  0.52140588    -0.08920
C824        C  0.78647068  0.49358328  0.47178540     0.29960
F825        F  0.80551166  0.49549030  0.45831180    -0.19440
H826        H  0.77728844  0.49561512  0.39746957     0.18330
H827        H  0.75606608  0.49142134  0.57052573     0.18330
F828        F  0.72808225  0.50212551  0.51011974    -0.19430
C829        C  0.81157998  0.49883338  0.73405272    -0.20860
C830        C  0.80569967  0.51707382  0.69143190    -0.08900
C831        C  0.79955702  0.55309504  0.69510889     0.29950
C832        C  0.80037808  0.57080495  0.74007502    -0.20860
C833        C  0.80724868  0.55294153  0.78178891    -0.08920
C834        C  0.81243752  0.51662661  0.77884744     0.29960
F835        F  0.81934009  0.49899879  0.81876153    -0.19440
H836        H  0.81620543  0.47105995  0.73226874     0.18330
H837        H  0.79662408  0.59902190  0.74187580     0.18330
F838        F  0.79420368  0.57203439  0.65482365    -0.19430
C839        C  0.87604566  0.45892765  0.51827939    -0.20860
C840        C  0.88681112  0.43553868  0.54814157    -0.08900
C841        C  0.87776978  0.41991439  0.58918763     0.29950
C842        C  0.85844824  0.42895704  0.60105933    -0.20860
C843        C  0.84785608  0.45304606  0.57157314    -0.08920
C844        C  0.85677697  0.46751045  0.52958766     0.29960
F845        F  0.84726671  0.49171923  0.50103024    -0.19440
H846        H  0.88275870  0.47131700  0.48656696     0.18330
H847        H  0.85186686  0.41774716  0.63372816     0.18330
F848        F  0.88793781  0.39777550  0.61933752    -0.19430
loop_ 
_geom_bond_atom_site_label_1 
_geom_bond_atom_site_label_2 
_geom_bond_distance 
_geom_bond_site_symmetry_2 
_ccdc_geom_bond_type 
C1            C2   1.399       .  A
C1            C6   1.400       .  A
C1          C843   1.482       .  S
C2            C3   1.405       .  A
C2            H7   1.084       .  S
C3            C4   1.407       .  A
C3          C830   1.485       .  S
C4            C5   1.410       .  A
C4            H8   1.082       .  S
C5            C6   1.407       .  A
C5          C823   1.495       .  S
C6            H9   1.082       .  S
N10          N11   1.323   1_655  A
N10          C14   1.346       .  A
N10         Cu18   2.093       .  S
N11          C12   1.341       .  A
N11         Cu17   2.045       .  S
C12          C13   1.374       .  A
C12          H15   1.082       .  S
C13          C14   1.387   1_455  A
C13          C79   1.465       .  S
C14          H16   1.082       .  S
Cu17         N20   2.044       .  S
Cu18         N28   2.092       .  S
Cu19         N21   2.061       .  S
Cu19         N27   2.062       .  S
N20          N21   1.319   1_455  A
N20          C24   1.342       .  A
N21          C22   1.342       .  A
C22          C23   1.383   1_655  A
C22          H25   1.082       .  S
C23          C24   1.379       .  A
C23          C56   1.463       .  S
C24          H26   1.082       .  S
N27          N28   1.323       .  A
N27          C31   1.339       .  A
N28          C29   1.351       .  A
C29          C30   1.388       .  A
C29          H32   1.082       .  S
C30          C31   1.379       .  A
C30         C840   1.476       .  S
C31          H33   1.082       .  S
C34          C35   1.403       .  A
C34          C39   1.403       .  A
C34         C810   1.486       .  S
C35          C36   1.403       .  A
C35          H40   1.084       .  S
C36          C37   1.403       .  A
C36         C800   1.479       .  S
C37          C38   1.407       .  A
C37          H41   1.083       .  S
C38          C39   1.407       .  A
C38         C790   1.490       .  S
C39          H42   1.083       .  S
N43          N44   1.322       .  A
N43          C47   1.348       .  A
N43         Cu51   2.095       .  S
N44          C45   1.339       .  A
N44         Cu50   2.038       .  S
C45          C46   1.373       .  A
C45          H48   1.082       .  S
C46          C47   1.389       .  A
C46         C112   1.466       .  S
C47          H49   1.082       .  S
Cu50         N53   2.038       .  S
Cu51         N61   2.096       .  S
Cu52         N54   2.066       .  S
Cu52         N60   2.068       .  S
N53          N54   1.318       .  A
N53          C57   1.339       .  A
N54          C55   1.345       .  A
C55          C56   1.385       .  A
C55          H58   1.082       .  S
C56          C57   1.378       .  A
C57          H59   1.082       .  S
N60          N61   1.325       .  A
N60          C64   1.341       .  A
N61          C62   1.351       .  A
C62          C63   1.385       .  A
C62          H65   1.082       .  S
C63          C64   1.376       .  A
C63         C813   1.470       .  S
C64          H66   1.082       .  S
C67          C68   1.404       .  A
C67          C72   1.402       .  A
C67         C783   1.485       .  S
C68          C69   1.406       .  A
C68          H73   1.083       .  S
C69          C70   1.404       .  A
C69         C770   1.482       .  S
C70          C71   1.403       .  A
C70          H74   1.084       .  S
C71          C72   1.402       .  A
C71         C760   1.476       .  S
C72          H75   1.084       .  S
N76          N77   1.322       .  A
N76          C80   1.347       .  A
N76         Cu84   2.092       .  S
N77          C78   1.340       .  A
N77         Cu83   2.041       .  S
C78          C79   1.374       .  A
C78          H81   1.082       .  S
C79          C80   1.387       .  A
C80          H82   1.082       .  S
Cu83         N86   2.041       .  S
Cu84         N94   2.092       .  S
Cu85         N87   2.061       .  S
Cu85         N93   2.062       .  S
N86          N87   1.318       .  A
N86          C90   1.339       .  A
N87          C88   1.344       .  A
C88          C89   1.383       .  A
C88          H91   1.082       .  S
C89          C90   1.378       .  A
C89         C122   1.461       .  S
C90          H92   1.082       .  S
N93          N94   1.324       .  A
N93          C97   1.340       .  A
N94          C95   1.350       .  A
C95          C96   1.385       .  A
C95          H98   1.082       .  S
C96          C97   1.375       .  A
C96         C780   1.467       .  S
C97          H99   1.082       .  S
C100        C101   1.401       .  A
C100        C105   1.400       .  A
C100        C750   1.483       .  S
C101        C102   1.408       .  A
C101        H106   1.082       .  S
C102        C103   1.409   1_565  A
C102        C730   1.496       .  S
C103        C104   1.406       .  A
C103        H107   1.081       .  S
C104        C105   1.405   1_545  A
C104        C740   1.483       .  S
C105        H108   1.084       .  S
N109        N110   1.324   1_655  A
N109        C113   1.346       .  A
N109       Cu117   2.094       .  S
N110        C111   1.342       .  A
N110       Cu116   2.047       .  S
C111        C112   1.375       .  A
C111        H114   1.082       .  S
C112        C113   1.387   1_455  A
C113        H115   1.082       .  S
Cu116       N119   2.045       .  S
Cu117       N127   2.093       .  S
Cu118       N120   2.058       .  S
Cu118       N126   2.058       .  S
N119        N120   1.319   1_455  A
N119        C123   1.342   1_565  A
N120        C121   1.342   1_565  A
C121        C122   1.382   1_655  A
C121        H124   1.082       .  S
C122        C123   1.379       .  A
C123        H125   1.082   1_545  S
N126        N127   1.323       .  A
N126        C130   1.339       .  A
N127        C128   1.351       .  A
C128        C129   1.389       .  A
C128        H131   1.082       .  S
C129        C130   1.379       .  A
C129        C753   1.477       .  S
C130        H132   1.082       .  S
C133        C134   1.399       .  A
C133        C138   1.405       .  A
C133        C723   1.481       .  S
C134        C135   1.395       .  A
C134        H139   1.085       .  S
C135        C136   1.399       .  A
C135        C743   1.469       .  S
C136        C137   1.412       .  A
C136        H140   1.083       .  S
C137        C138   1.412       .  A
C137        C713   1.495       .  S
C138        H141   1.081       .  S
N142        N143   1.326   1_655  A
N142        C146   1.347       .  A
N142       Cu150   2.087       .  S
N143        C144   1.350       .  A
N143       Cu149   2.102       .  S
C144        C145   1.386       .  A
C144        H147   1.082       .  S
C145        C146   1.383   1_455  A
C145        C211   1.478       .  S
C146        H148   1.082       .  S
Cu149       N152   2.101       .  S
Cu150       N160   2.085       .  S
Cu151       N153   2.053       .  S
Cu151       N159   2.053       .  S
N152        N153   1.321   1_455  A
N152        C156   1.349       .  A
N153        C154   1.343       .  A
C154        C155   1.379   1_655  A
C154        H157   1.082       .  S
C155        C156   1.391       .  A
C155        C188   1.476       .  S
C156        H158   1.082       .  S
N159        N160   1.320       .  A
N159        C163   1.339       .  A
N160        C161   1.349       .  A
C161        C162   1.390       .  A
C161        H164   1.082       .  S
C162        C163   1.382       .  A
C162        C720   1.480       .  S
C163        H165   1.081       .  S
C166        C167   1.399   1_565  A
C166        C171   1.404       .  A
C166        C700   1.482       .  S
C167        C168   1.396       .  A
C167        H172   1.085       .  S
C168        C169   1.400       .  A
C168        C773   1.470       .  S
C169        C170   1.411   1_545  A
C169        H173   1.083       .  S
C170        C171   1.413       .  A
C170        C690   1.494       .  S
C171        H174   1.082       .  S
N175        N176   1.326       .  A
N175        C179   1.349       .  A
N175       Cu183   2.098       .  S
N176        C177   1.348       .  A
N176       Cu182   2.098       .  S
C177        C178   1.384       .  A
C177        H180   1.082       .  S
C178        C179   1.385       .  A
C178        C244   1.480       .  S
C179        H181   1.082       .  S
Cu182       N185   2.097       .  S
Cu183       N193   2.096       .  S
Cu184       N186   2.052       .  S
Cu184       N192   2.052       .  S
N185        N186   1.320       .  A
N185        C189   1.349   1_556  A
N186        C187   1.344   1_566  A
C187        C188   1.380       .  A
C187        H190   1.082       .  S
C188        C189   1.391   1_545  A
C189        H191   1.082       .  S
N192        N193   1.321       .  A
N192        C196   1.337       .  A
N193        C194   1.352       .  A
C194        C195   1.393       .  A
C194        H197   1.081       .  S
C195        C196   1.382       .  A
C195        C703   1.486       .  S
C196        H198   1.082       .  S
C199        C200   1.401       .  A
C199        C204   1.402       .  A
C199        C680   1.479       .  S
C200        C201   1.403       .  A
C200        H205   1.084       .  S
C201        C202   1.403       .  A
C201        C803   1.472       .  S
C202        C203   1.405       .  A
C202        H206   1.084       .  S
C203        C204   1.402       .  A
C203        C670   1.476       .  S
C204        H207   1.084       .  S
N208        N209   1.326       .  A
N208        C212   1.349       .  A
N208       Cu216   2.092       .  S
N209        C210   1.348       .  A
N209       Cu215   2.097       .  S
C210        C211   1.384       .  A
C210        H213   1.082       .  S
C211        C212   1.384       .  A
C212        H214   1.082       .  S
Cu215       N218   2.096       .  S
Cu216       N226   2.090       .  S
Cu217       N219   2.052       .  S
Cu217       N225   2.052       .  S
N218        N219   1.320       .  A
N218        C222   1.349       .  A
N219        C220   1.343       .  A
C220        C221   1.379       .  A
C220        H223   1.082       .  S
C221        C222   1.390       .  A
C221        C254   1.475       .  S
C222        H224   1.082       .  S
N225        N226   1.321       .  A
N225        C229   1.339       .  A
N226        C227   1.350       .  A
C227        C228   1.388       .  A
C227        H230   1.082       .  S
C228        C229   1.379       .  A
C228        C683   1.475       .  S
C229        H231   1.082       .  S
C232        C233   1.401       .  A
C232        C237   1.406       .  A
C232        C660   1.485       .  S
C233        C234   1.396       .  A
C233        H238   1.084       .  S
C234        C235   1.398       .  A
C234        C833   1.470       .  S
C235        C236   1.411       .  A
C235        H239   1.082       .  S
C236        C237   1.412       .  A
C236        C650   1.494       .  S
C237        H240   1.082       .  S
N241        N242   1.326   1_655  A
N241        C245   1.348       .  A
N241       Cu249   2.094       .  S
N242        C243   1.349       .  A
N242       Cu248   2.098       .  S
C243        C244   1.385       .  A
C243        H246   1.082       .  S
C244        C245   1.385   1_455  A
C245        H247   1.082       .  S
Cu248       N251   2.097       .  S
Cu249       N259   2.092       .  S
Cu250       N252   2.054       .  S
Cu250       N258   2.054       .  S
N251        N252   1.321   1_455  A
N251        C255   1.348   1_556  A
N252        C253   1.344   1_556  A
C253        C254   1.380   1_655  A
C253        H256   1.082       .  S
C254        C255   1.390       .  A
C255        H257   1.082       .  S
N258        N259   1.321       .  A
N258        C262   1.339       .  A
N259        C260   1.350       .  A
C260        C261   1.390       .  A
C260        H263   1.082       .  S
C261        C262   1.381       .  A
C261        C663   1.481       .  S
C262        H264   1.082       .  S
C265        C266   1.400       .  A
C265        C270   1.399   1_556  A
C265        C640   1.471       .  S
C266        C267   1.403       .  A
C266        H271   1.084       .  S
C267        C268   1.403       .  A
C267        C630   1.474       .  S
C268        C269   1.404   1_556  A
C268        H272   1.084       .  S
C269        C270   1.403       .  A
C269        C673   1.475       .  S
C270        H273   1.084       .  S
N274        N275   1.323       .  A
N274        C278   1.349       .  A
N274       Cu282   2.098       .  S
N275        C276   1.338       .  A
N275       Cu281   2.037       .  S
C276        C277   1.372       .  A
C276        H279   1.082       .  S
C277        C278   1.389       .  A
C277        C343   1.465       .  S
C278        H280   1.082       .  S
Cu281       N284   2.037       .  S
Cu282       N292   2.098       .  S
Cu283       N285   2.058       .  S
Cu283       N291   2.060       .  S
N284        N285   1.317       .  A
N284        C288   1.340       .  A
N285        C286   1.343       .  A
C286        C287   1.384       .  A
C286        H289   1.082   1_554  S
C287        C288   1.378       .  A
C287        C320   1.461   1_554  S
C288        H290   1.082       .  S
N291        N292   1.324       .  A
N291        C295   1.338       .  A
N292        C293   1.352       .  A
C293        C294   1.389       .  A
C293        H296   1.082       .  S
C294        C295   1.378       .  A
C294        C643   1.477       .  S
C295        H297   1.082   1_554  S
C298        C299   1.403       .  A
C298        C303   1.400       .  A
C298        C623   1.482       .  S
C299        C300   1.410       .  A
C299        H304   1.083       .  S
C300        C301   1.409       .  A
C300        C653   1.494       .  S
C301        C302   1.402       .  A
C301        H305   1.082       .  S
C302        C303   1.400       .  A
C302        C613   1.470       .  S
C303        H306   1.084       .  S
N307        N308   1.323   1_554  A
N307        C311   1.346       .  A
N307       Cu315   2.096       .  S
N308        C309   1.342       .  A
N308       Cu314   2.042       .  S
C309        C310   1.374   1_556  A
C309        H312   1.082       .  S
C310        C311   1.388       .  A
C310        C376   1.465       .  S
C311        H313   1.082       .  S
Cu314       N317   2.040       .  S
Cu315       N325   2.095       .  S
Cu316       N318   2.060   1_554  S
Cu316       N324   2.061       .  S
N317        N318   1.319       .  A
N317        C321   1.340       .  A
N318        C319   1.343   1_556  A
C319        C320   1.383   1_554  A
C319        H322   1.082       .  S
C320        C321   1.378       .  A
C321        H323   1.082       .  S
N324        N325   1.323       .  A
N324        C328   1.339       .  A
N325        C326   1.352       .  A
C326        C327   1.388       .  A
C326        H329   1.082       .  S
C327        C328   1.378       .  A
C327        C620   1.476       .  S
C328        H330   1.082       .  S
C331        C332   1.403   1_556  A
C331        C336   1.401       .  A
C331        C600   1.483   1_556  S
C332        C333   1.409       .  A
C332        H337   1.082       .  S
C333        C334   1.409   1_554  A
C333        C710   1.495       .  S
C334        C335   1.402       .  A
C334        H338   1.083       .  S
C335        C336   1.401       .  A
C335        C590   1.471       .  S
C336        H339   1.084       .  S
N340        N341   1.323       .  A
N340        C344   1.345       .  A
N340       Cu348   2.092       .  S
N341        C342   1.342       .  A
N341       Cu347   2.043       .  S
C342        C343   1.375       .  A
C342        H345   1.082       .  S
C343        C344   1.387       .  A
C344        H346   1.082       .  S
Cu347       N350   2.042       .  S
Cu348       N358   2.091       .  S
Cu349       N351   2.068       .  S
Cu349       N357   2.068       .  S
N350        N351   1.319       .  A
N350        C354   1.341       .  A
N351        C352   1.343       .  A
C352        C353   1.384       .  A
C352        H355   1.082       .  S
C353        C354   1.378       .  A
C353        C386   1.463       .  S
C354        H356   1.082       .  S
N357        N358   1.323       .  A
N357        C361   1.341       .  A
N358        C359   1.351       .  A
C359        C360   1.387       .  A
C359        H362   1.082       .  S
C360        C361   1.380       .  A
C360        C603   1.477       .  S
C361        H363   1.082       .  S
C364        C365   1.403       .  A
C364        C369   1.400       .  A
C364        C583   1.495       .  S
C365        C366   1.412       .  A
C365        H370   1.080       .  S
C366        C367   1.412       .  A
C366        C693   1.493       .  S
C367        C368   1.408       .  A
C367        H371   1.081   1_565  S
C368        C369   1.407       .  A
C368        C570   1.501   1_565  S
C369        H372   1.082       .  S
N373        N374   1.323       .  A
N373        C377   1.349       .  A
N373       Cu381   2.100       .  S
N374        C375   1.339       .  A
N374       Cu380   2.035       .  S
C375        C376   1.372       .  A
C375        H378   1.082       .  S
C376        C377   1.390       .  A
C377        H379   1.082       .  S
Cu380       N383   2.035       .  S
Cu381       N391   2.100       .  S
Cu382       N384   2.068       .  S
Cu382       N390   2.070       .  S
N383        N384   1.318       .  A
N383        C387   1.340       .  A
N384        C385   1.345   1_565  A
C385        C386   1.386       .  A
C385        H388   1.082       .  S
C386        C387   1.378   1_545  A
C387        H389   1.082       .  S
N390        N391   1.324       .  A
N390        C394   1.338       .  A
N391        C392   1.353       .  A
C392        C393   1.390       .  A
C392        H395   1.082       .  S
C393        C394   1.381       .  A
C393        C580   1.484       .  S
C394        H396   1.082       .  S
C397        C398   1.403       .  A
C397        C402   1.401       .  A
C397        C560   1.483       .  S
C398        C399   1.407       .  A
C398        H403   1.082       .  S
C399        C400   1.408       .  A
C399        C793   1.490       .  S
C400        C401   1.402       .  A
C400        H404   1.083       .  S
C401        C402   1.402       .  A
C401        C633   1.475       .  S
C402        H405   1.084       .  S
N406        N407   1.326       .  A
N406        C410   1.348       .  A
N406       Cu414   2.093       .  S
N407        C408   1.348       .  A
N407       Cu413   2.094       .  S
C408        C409   1.384       .  A
C408        H411   1.082       .  S
C409        C410   1.384       .  A
C409        C508   1.478       .  S
C410        H412   1.082       .  S
Cu413       N416   2.093       .  S
Cu414       N424   2.091       .  S
Cu415       N417   2.056       .  S
Cu415       N423   2.056       .  S
N416        N417   1.321       .  A
N416        C420   1.348       .  A
N417        C418   1.344       .  A
C418        C419   1.380       .  A
C418        H421   1.082       .  S
C419        C420   1.389       .  A
C419        C452   1.475       .  S
C420        H422   1.082       .  S
N423        N424   1.322       .  A
N423        C427   1.339       .  A
N424        C425   1.351       .  A
C425        C426   1.389       .  A
C425        H428   1.082       .  S
C426        C427   1.379       .  A
C426        C563   1.477       .  S
C427        H429   1.082       .  S
C430        C431   1.400       .  A
C430        C435   1.398       .  A
C430        C550   1.477       .  S
C431        C432   1.407       .  A
C431        H436   1.082       .  S
C432        C433   1.412       .  A
C432        C820   1.495       .  S
C433        C434   1.406       .  A
C433        H437   1.082       .  S
C434        C435   1.403       .  A
C434        C610   1.484       .  S
C435        H438   1.084       .  S
N439        N440   1.325       .  A
N439        C443   1.348       .  A
N439       Cu447   2.085       .  S
N440        C441   1.347       .  A
N440       Cu446   2.095       .  S
C441        C442   1.385       .  A
C441        H444   1.082       .  S
C442        C443   1.383       .  A
C442        C475   1.476       .  S
C443        H445   1.082       .  S
Cu446       N449   2.094       .  S
Cu447       N457   2.084       .  S
Cu448       N450   2.055       .  S
Cu448       N456   2.055       .  S
N449        N450   1.321       .  A
N449        C453   1.348       .  A
N450        C451   1.343       .  A
C451        C452   1.380       .  A
C451        H454   1.082       .  S
C452        C453   1.389       .  A
C453        H455   1.082       .  S
N456        N457   1.321       .  A
N456        C460   1.340       .  A
N457        C458   1.349       .  A
C458        C459   1.388       .  A
C458        H461   1.082       .  S
C459        C460   1.380       .  A
C459        C553   1.477       .  S
C460        H462   1.082       .  S
C463        C464   1.397       .  A
C463        C468   1.398       .  A
C463        C540   1.479       .  S
C464        C465   1.404       .  A
C464        H469   1.084       .  S
C465        C466   1.410       .  A
C465        C763   1.476       .  S
C466        C467   1.407       .  A
C466        H470   1.083       .  S
C467        C468   1.406       .  A
C467        C573   1.491       .  S
C468        H471   1.083       .  S
N472        N473   1.325       .  A
N472        C476   1.346       .  A
N472       Cu480   2.081       .  S
N473        C474   1.349       .  A
N473       Cu479   2.100       .  S
C474        C475   1.386       .  A
C474        H477   1.082       .  S
C475        C476   1.382       .  A
C476        H478   1.082       .  S
Cu479       N482   2.099       .  S
Cu480       N490   2.079       .  S
Cu481       N483   2.053       .  S
Cu481       N489   2.054       .  S
N482        N483   1.321       .  A
N482        C486   1.348       .  A
N483        C484   1.344       .  A
C484        C485   1.379       .  A
C484        H487   1.082       .  S
C485        C486   1.390       .  A
C485        C518   1.475       .  S
C486        H488   1.082       .  S
N489        N490   1.320       .  A
N489        C493   1.338       .  A
N490        C491   1.349       .  A
C491        C492   1.389       .  A
C491        H494   1.082       .  S
C492        C493   1.382       .  A
C492        C543   1.480       .  S
C493        H495   1.082       .  S
C496        C497   1.401       .  A
C496        C501   1.399   1_565  A
C496        C530   1.482       .  S
C497        C498   1.411   1_565  A
C497        H502   1.082       .  S
C498        C499   1.412       .  A
C498        C733   1.495       .  S
C499        C500   1.405       .  A
C499        H503   1.081       .  S
C500        C501   1.401       .  A
C500        C593   1.485       .  S
C501        H504   1.084       .  S
N505        N506   1.326       .  A
N505        C509   1.348       .  A
N505       Cu513   2.092       .  S
N506        C507   1.349       .  A
N506       Cu512   2.101       .  S
C507        C508   1.385       .  A
C507        H510   1.082       .  S
C508        C509   1.384       .  A
C509        H511   1.082       .  S
Cu512       N515   2.100       .  S
Cu513       N523   2.090       .  S
Cu514       N516   2.049   1_565  S
Cu514       N522   2.049       .  S
N515        N516   1.321   1_565  A
N515        C519   1.349   1_565  A
N516        C517   1.343       .  A
C517        C518   1.378       .  A
C517        H520   1.082       .  S
C518        C519   1.391       .  A
C519        H521   1.082   1_545  S
N522        N523   1.320       .  A
N522        C526   1.338       .  A
N523        C524   1.351       .  A
C524        C525   1.391       .  A
C524        H527   1.082       .  S
C525        C526   1.380       .  A
C525        C533   1.479       .  S
C526        H528   1.082   1_565  S
C529        C530   1.402   1_545  A
C529        C534   1.392   1_545  A
C529        H536   1.084       .  S
C530        C531   1.408       .  A
C531        C532   1.403       .  A
C531        F538   1.357       .  S
C532        C533   1.405       .  A
C532        H537   1.083       .  S
C533        C534   1.408       .  A
C534        F535   1.357   1_565  S
C539        C540   1.405       .  A
C539        C544   1.405       .  A
C539        H546   1.083       .  S
C540        C541   1.405       .  A
C541        C542   1.388       .  A
C541        F548   1.357       .  S
C542        C543   1.403       .  A
C542        H547   1.083       .  S
C543        C544   1.409       .  A
C544        F545   1.357       .  S
C549        C550   1.401       .  A
C549        C554   1.393       .  A
C549        H556   1.084       .  S
C550        C551   1.406       .  A
C551        C552   1.401       .  A
C551        F558   1.357       .  S
C552        C553   1.404       .  A
C552        H557   1.083       .  S
C553        C554   1.407       .  A
C554        F555   1.357       .  S
C559        C560   1.407       .  A
C559        C564   1.404       .  A
C559        H566   1.083       .  S
C560        C561   1.406       .  A
C561        C562   1.393       .  A
C561        F568   1.358       .  S
C562        C563   1.403       .  A
C562        H567   1.083       .  S
C563        C564   1.406       .  A
C564        F565   1.357       .  S
C569        C570   1.407       .  A
C569        C574   1.384       .  A
C569        H576   1.080       .  S
C570        C571   1.415       .  A
C571        C572   1.409       .  A
C571        F578   1.356       .  S
C572        C573   1.408       .  A
C572        H577   1.083       .  S
C573        C574   1.406       .  A
C574        F575   1.357       .  S
C579        C580   1.407       .  A
C579        C584   1.409       .  A
C579        H586   1.083       .  S
C580        C581   1.405       .  A
C581        C582   1.389       .  A
C581        F588   1.358       .  S
C582        C583   1.407       .  A
C582        H587   1.082       .  S
C583        C584   1.411       .  A
C584        F585   1.357       .  S
C589        C590   1.402       .  A
C589        C594   1.401       .  A
C589        H596   1.083       .  S
C590        C591   1.401       .  A
C591        C592   1.394       .  A
C591        F598   1.358       .  S
C592        C593   1.406       .  A
C592        H597   1.083       .  S
C593        C594   1.410       .  A
C594        F595   1.357       .  S
C599        C600   1.404       .  A
C599        C604   1.394       .  A
C599        H606   1.084       .  S
C600        C601   1.408   1_554  A
C601        C602   1.404       .  A
C601        F608   1.357       .  S
C602        C603   1.405   1_556  A
C602        H607   1.083       .  S
C603        C604   1.404       .  A
C604        F605   1.357       .  S
C609        C610   1.406       .  A
C609        C614   1.396       .  A
C609        H616   1.083       .  S
C610        C611   1.410       .  A
C611        C612   1.399       .  A
C611        F618   1.357       .  S
C612        C613   1.401       .  A
C612        H617   1.083       .  S
C613        C614   1.402       .  A
C614        F615   1.357       .  S
C619        C620   1.402       .  A
C619        C624   1.393       .  A
C619        H626   1.083   1_554  S
C620        C621   1.406       .  A
C621        C622   1.404       .  A
C621        F628   1.357       .  S
C622        C623   1.407       .  A
C622        H627   1.083       .  S
C623        C624   1.406       .  A
C624        F625   1.358       .  S
C629        C630   1.403       .  A
C629        C634   1.397       .  A
C629        H636   1.083       .  S
C630        C631   1.405       .  A
C631        C632   1.399       .  A
C631        F638   1.357       .  S
C632        C633   1.404       .  A
C632        H637   1.083       .  S
C633        C634   1.404       .  A
C634        F635   1.358       .  S
C639        C640   1.399   1_554  A
C639        C644   1.392       .  A
C639        H646   1.084       .  S
C640        C641   1.404       .  A
C641        C642   1.404       .  A
C641        F648   1.357       .  S
C642        C643   1.406   1_556  A
C642        H647   1.083       .  S
C643        C644   1.408       .  A
C644        F645   1.357       .  S
C649        C650   1.408       .  A
C649        C654   1.400   1_556  A
C649        H656   1.082   1_556  S
C650        C651   1.409       .  A
C651        C652   1.395       .  A
C651        F658   1.357       .  S
C652        C653   1.408   1_556  A
C652        H657   1.082       .  S
C653        C654   1.410       .  A
C654        F655   1.357       .  S
C659        C660   1.404       .  A
C659        C664   1.393       .  A
C659        H666   1.083       .  S
C660        C661   1.409       .  A
C661        C662   1.403       .  A
C661        F668   1.357       .  S
C662        C663   1.405       .  A
C662        H667   1.083       .  S
C663        C664   1.407       .  A
C664        F665   1.357       .  S
C669        C670   1.403       .  A
C669        C674   1.395       .  A
C669        H676   1.083       .  S
C670        C671   1.406       .  A
C671        C672   1.399       .  A
C671        F678   1.358       .  S
C672        C673   1.404       .  A
C672        H677   1.083       .  S
C673        C674   1.404       .  A
C674        F675   1.358       .  S
C679        C680   1.402       .  A
C679        C684   1.393       .  A
C679        H686   1.084       .  S
C680        C681   1.408       .  A
C681        C682   1.403       .  A
C681        F688   1.357       .  S
C682        C683   1.404       .  A
C682        H687   1.083       .  S
C683        C684   1.406       .  A
C684        F685   1.357       .  S
C689        C690   1.407       .  A
C689        C694   1.398       .  A
C689        H696   1.082       .  S
C690        C691   1.410   1_556  A
C691        C692   1.398       .  A
C691        F698   1.357       .  S
C692        C693   1.407       .  A
C692        H697   1.083       .  S
C693        C694   1.410   1_554  A
C694        F695   1.357       .  S
C699        C700   1.405       .  A
C699        C704   1.406       .  A
C699        H706   1.083       .  S
C700        C701   1.404       .  A
C701        C702   1.392       .  A
C701        F708   1.358   1_565  S
C702        C703   1.405       .  A
C702        H707   1.082   1_565  S
C703        C704   1.410       .  A
C704        F705   1.356       .  S
C709        C710   1.407       .  A
C709        C714   1.399       .  A
C709        H716   1.082       .  S
C710        C711   1.411       .  A
C711        C712   1.395       .  A
C711        F718   1.357       .  S
C712        C713   1.406       .  A
C712        H717   1.082       .  S
C713        C714   1.412       .  A
C714        F715   1.357       .  S
C719        C720   1.406       .  A
C719        C724   1.403       .  A
C719        H726   1.083       .  S
C720        C721   1.408       .  A
C721        C722   1.392       .  A
C721        F728   1.357       .  S
C722        C723   1.403       .  A
C722        H727   1.084       .  S
C723        C724   1.407       .  A
C724        F725   1.357       .  S
C729        C730   1.409       .  A
C729        C734   1.396       .  A
C729        H736   1.082       .  S
C730        C731   1.410       .  A
C731        C732   1.398   1_565  A
C731        F738   1.357       .  S
C732        C733   1.409       .  A
C732        H737   1.082       .  S
C733        C734   1.409   1_545  A
C734        F735   1.357       .  S
C739        C740   1.406       .  A
C739        C744   1.398       .  A
C739        H746   1.083       .  S
C740        C741   1.409       .  A
C741        C742   1.397       .  A
C741        F748   1.358   1_545  S
C742        C743   1.400       .  A
C742        H747   1.083       .  S
C743        C744   1.402       .  A
C744        F745   1.358       .  S
C749        C750   1.407       .  A
C749        C754   1.404       .  A
C749        H756   1.083       .  S
C750        C751   1.407       .  A
C751        C752   1.393       .  A
C751        F758   1.358       .  S
C752        C753   1.402       .  A
C752        H757   1.083       .  S
C753        C754   1.406       .  A
C754        F755   1.357       .  S
C759        C760   1.404       .  A
C759        C764   1.398       .  A
C759        H766   1.083       .  S
C760        C761   1.405       .  A
C761        C762   1.395       .  A
C761        F768   1.358       .  S
C762        C763   1.403       .  A
C762        H767   1.083       .  S
C763        C764   1.406       .  A
C764        F765   1.358       .  S
C769        C770   1.405       .  A
C769        C774   1.396       .  A
C769        H776   1.083       .  S
C770        C771   1.409       .  A
C771        C772   1.398       .  A
C771        F778   1.357       .  S
C772        C773   1.401       .  A
C772        H777   1.084   1_545  S
C773        C774   1.402       .  A
C774        F775   1.357       .  S
C779        C780   1.402       .  A
C779        C784   1.401       .  A
C779        H786   1.083       .  S
C780        C781   1.401       .  A
C781        C782   1.394       .  A
C781        F788   1.358       .  S
C782        C783   1.406       .  A
C782        H787   1.083       .  S
C783        C784   1.410       .  A
C784        F785   1.357       .  S
C789        C790   1.405       .  A
C789        C794   1.397       .  A
C789        H796   1.083       .  S
C790        C791   1.411       .  A
C791        C792   1.397       .  A
C791        F798   1.357       .  S
C792        C793   1.405       .  A
C792        H797   1.082       .  S
C793        C794   1.411       .  A
C794        F795   1.357       .  S
C799        C800   1.404       .  A
C799        C804   1.398       .  A
C799        H806   1.083       .  S
C800        C801   1.407       .  A
C801        C802   1.398       .  A
C801        F808   1.357       .  S
C802        C803   1.402       .  A
C802        H807   1.084       .  S
C803        C804   1.404       .  A
C804        F805   1.357       .  S
C809        C810   1.406       .  A
C809        C814   1.395       .  A
C809        H816   1.083       .  S
C810        C811   1.410       .  A
C811        C812   1.402       .  A
C811        F818   1.357       .  S
C812        C813   1.402       .  A
C812        H817   1.083       .  S
C813        C814   1.402       .  A
C814        F815   1.357       .  S
C819        C820   1.405       .  A
C819        C824   1.395       .  A
C819        H826   1.082       .  S
C820        C821   1.413       .  A
C821        C822   1.398       .  A
C821        F828   1.357       .  S
C822        C823   1.406       .  A
C822        H827   1.082       .  S
C823        C824   1.412       .  A
C824        F825   1.357       .  S
C829        C830   1.406       .  A
C829        C834   1.396       .  A
C829        H836   1.083       .  S
C830        C831   1.410       .  A
C831        C832   1.399       .  A
C831        F838   1.357       .  S
C832        C833   1.401       .  A
C832        H837   1.084       .  S
C833        C834   1.401       .  A
C834        F835   1.357       .  S
C839        C840   1.402       .  A
C839        C844   1.393       .  A
C839        H846   1.083       .  S
C840        C841   1.406       .  A
C841        C842   1.404       .  A
C841        F848   1.357       .  S
C842        C843   1.406       .  A
C842        H847   1.083       .  S
C843        C844   1.406       .  A
C844        F845   1.358       .  S
