geometry optimzed in LAMMPS
_audit_creation_date              2020-11-30 
_audit_creation_method            'lammps2cif' 
_symmetry_space_group_name_H-M    'P1' 
_symmetry_Int_Tables_number       1 
_symmetry_cell_setting            triclinic 
loop_ 
_symmetry_equiv_pos_as_xyz 
  x,y,z 
_cell_length_a                    44.78882288 
_cell_length_b                    45.22677255292885 
_cell_length_c                    25.005494232426464 
_cell_angle_alpha                 89.86594401635992 
_cell_angle_beta                  90.17842853622831 
_cell_angle_gamma                 89.30241161074835 
loop_ 
_atom_site_label 
_atom_site_type_symbol 
_atom_site_fract_x 
_atom_site_fract_y 
_atom_site_fract_z 
_atom_site_charge 
In1        In  0.59469421  0.10525301  0.28777278     1.36900
C2          C  0.59413721  0.04806243  0.31278017     0.77600
O3          O  0.60733752  0.10004985  0.20168848    -0.60800
O4          O  0.63742044  0.12290561  0.25121076    -0.51700
C5          C  0.54133627  0.12024140  0.24962238     0.70300
O6          O  0.55144600  0.09411271  0.25132106    -0.46600
C7          C  0.60291613  0.12781893  0.38559081     0.75000
O8          O  0.57188773  0.06485991  0.31947942    -0.58400
O9          O  0.62190543  0.11136372  0.36306853    -0.48500
O10         O  0.61695004  0.06078777  0.29538956    -0.54900
C11         C  0.63264547  0.11138294  0.20608082     0.85200
O12         O  0.55932425  0.13975695  0.26585651    -0.56800
O13         O  0.58128830  0.13521431  0.35592513    -0.60000
In14       In  0.58896172  0.10026293  0.70956467     1.36900
C15         C  0.59664955  0.12438519  0.61304729     0.77600
O16         O  0.61621157  0.06181458  0.68154260    -0.60800
O17         O  0.56922879  0.05693606  0.68658982    -0.51700
C18         C  0.62630116  0.10072219  0.79285884     0.70300
O19         O  0.60957307  0.07965866  0.78117868    -0.46600
C20         C  0.53537809  0.11497146  0.74642893     0.75000
O21         O  0.61812320  0.12018751  0.64508820    -0.58400
O22         O  0.54580027  0.08899913  0.74648646    -0.48500
O23         O  0.57152790  0.11832604  0.63217663    -0.54900
C24         C  0.59422845  0.04482896  0.67808001     0.85200
O25         O  0.62229462  0.12355630  0.76412467    -0.56800
O26         O  0.55364467  0.13451742  0.73177391    -0.60000
In27       In  0.59531729  0.86552869  0.28377011     1.36900
C28         C  0.60588323  0.84180319  0.37999157     0.77600
O29         O  0.61762759  0.90625408  0.31431234    -0.60800
O30         O  0.57070746  0.90742022  0.30350409    -0.51700
C31         C  0.63295923  0.86483283  0.20093496     0.70300
O32         O  0.61772843  0.88686183  0.21514011    -0.46600
C33         C  0.54293077  0.84821223  0.24570098     0.75000
O34         O  0.62664867  0.84695881  0.34741973    -0.58400
O35         O  0.55213531  0.87435155  0.24307609    -0.48500
O36         O  0.58015760  0.84685872  0.36160517    -0.54900
C37         C  0.59391114  0.92152727  0.31509986     0.85200
O38         O  0.62803650  0.84172275  0.22800404    -0.56800
O39         O  0.56185869  0.82975207  0.26383298    -0.60000
In40       In  0.60490700  0.86130395  0.70291580     1.36900
C41         C  0.60382157  0.91892650  0.68385930     0.77600
O42         O  0.61747094  0.85560256  0.78939909    -0.60800
O43         O  0.65124610  0.84898223  0.73188360    -0.51700
C44         C  0.54938131  0.85048017  0.73399227     0.70300
O45         O  0.56085870  0.87577494  0.73402114    -0.46600
C46         C  0.61456717  0.83889569  0.60630776     0.75000
O47         O  0.58552084  0.90154768  0.66264330    -0.58400
O48         O  0.62862999  0.86065636  0.62415521    -0.48500
O49         O  0.62267452  0.90668549  0.71432617    -0.54900
C50         C  0.64491065  0.85200864  0.78060845     0.85200
O51         O  0.56704169  0.82975391  0.72040416    -0.56800
O52         O  0.59790026  0.82650260  0.63993926    -0.60000
In53       In  0.36497705  0.09927182  0.28461370     1.36900
C54         C  0.35466947  0.12388658  0.37929761     0.77600
O55         O  0.34496272  0.05986150  0.32394597    -0.60800
O56         O  0.39094344  0.05797167  0.30427027    -0.51700
C57         C  0.32558950  0.09719793  0.20396786     0.70300
O58         O  0.33257735  0.12134238  0.22593550    -0.46600
C59         C  0.41595375  0.11821036  0.24373839     0.75000
O60         O  0.33409973  0.12006074  0.34543164    -0.58400
O61         O  0.40630610  0.09239185  0.23748964    -0.48500
O62         O  0.38043397  0.11753354  0.36269464    -0.54900
C63         C  0.36867449  0.04462166  0.32276949     0.85200
O64         O  0.33916262  0.07504401  0.22269589    -0.56800
O65         O  0.39795015  0.13564524  0.26688283    -0.60000
In66       In  0.35436628  0.10297715  0.70336694     1.36900
C67         C  0.35461415  0.04519199  0.68716591     0.77600
O68         O  0.34235474  0.10558069  0.78997897    -0.60800
O69         O  0.30876555  0.11691273  0.73395434    -0.51700
C70         C  0.40896701  0.11523526  0.73737235     0.70300
O71         O  0.39831213  0.08958166  0.73632423    -0.46600
C72         C  0.34481690  0.12437599  0.60542783     0.75000
O73         O  0.37472602  0.06150723  0.66856712    -0.58400
O74         O  0.33080854  0.10287335  0.62440432    -0.48500
O75         O  0.33436947  0.05873905  0.71215722    -0.54900
C76         C  0.31512340  0.11094546  0.78196456     0.85200
O77         O  0.39107725  0.13552688  0.72225945    -0.56800
O78         O  0.36183275  0.13690968  0.63839442    -0.60000
In79       In  0.36505339  0.86410685  0.29466005     1.36900
C80         C  0.36965905  0.91904370  0.33086841     0.77600
O81         O  0.33762843  0.88706714  0.23262721    -0.60800
O82         O  0.33393581  0.84060833  0.23632748    -0.51700
C83         C  0.41702267  0.84754014  0.25245808     0.70300
O84         O  0.40503004  0.87256137  0.24512389    -0.46600
C85         C  0.35348247  0.83972219  0.38934136     0.75000
O86         O  0.39185832  0.90434870  0.31454879    -0.58400
O87         O  0.33311090  0.84804700  0.35762481    -0.48500
O88         O  0.34567691  0.90485284  0.33195653    -0.54900
C89         C  0.32541039  0.86445913  0.21416308     0.85200
O90         O  0.40100765  0.82952491  0.27799533    -0.56800
O91         O  0.37938860  0.84100839  0.37021561    -0.60000
In92       In  0.36469730  0.86095383  0.71332823     1.36900
C93         C  0.35148860  0.84055567  0.61617768     0.77600
O94         O  0.34395754  0.90488480  0.72869444    -0.60800
O95         O  0.37971573  0.90285508  0.67343893    -0.51700
C96         C  0.32687927  0.85020191  0.79319183     0.70300
O97         O  0.32111104  0.84393440  0.74521582    -0.46600
C98         C  0.42167772  0.85008012  0.73783552     0.75000
O99         O  0.36862128  0.82660076  0.64779450    -0.58400
O100        O  0.40933255  0.87516067  0.74145198    -0.48500
O101        O  0.33954144  0.86327406  0.63609620    -0.54900
C102        C  0.36052764  0.91870777  0.69701896     0.85200
O103        O  0.35353795  0.85753516  0.80103281    -0.56800
O104        O  0.40431311  0.82962927  0.72384282    -0.60000
C105        C  0.18931738  0.86318527  0.00079133     0.86600
C106        C  0.20990447  0.85951416  0.04969579    -0.53700
C107        C  0.23505162  0.87615465  0.04848434     0.09500
C108        C  0.23718983  0.89592165  0.99837855     0.20400
C109        C  0.18259982  0.89682028  0.99829918    -0.54400
C110        C  0.20762491  0.91415744  0.99743160     0.09600
C111        C  0.20970157  0.85757997  0.95250598    -0.53900
C112        C  0.23504846  0.87399001  0.95124282     0.10200
H113        H  0.20523535  0.84425753  0.08215557     0.14700
H114        H  0.25748402  0.90969765  0.99747107     0.00400
H115        H  0.16052319  0.90657224  0.99639348     0.15000
H116        H  0.20518645  0.84036349  0.92347620     0.14800
C117        C  0.10035624  0.76707029  0.00210642     0.86600
C118        C  0.10577004  0.74744567  0.95298404    -0.53700
C119        C  0.09040477  0.72149271  0.95231410     0.09500
C120        C  0.06928632  0.71846103  0.00119784     0.20400
C121        C  0.06625250  0.77246630  0.00210663    -0.54400
C122        C  0.04961259  0.74711771  0.00203159     0.09600
C123        C  0.10594714  0.74675257  0.05046258    -0.53900
C124        C  0.09033130  0.72108585  0.05004837     0.10200
H125        H  0.12132701  0.75368772  0.92188553     0.14700
H126        H  0.05640185  0.69782313  0.00201217     0.00400
H127        H  0.05586260  0.79418345  0.00168393     0.15000
H128        H  0.12160022  0.75216298  0.08212999     0.14800
C129        C  0.09119464  0.18765332  0.00953427     0.86600
C130        C  0.09703574  0.20785241  0.05761723    -0.53700
C131        C  0.08177395  0.23415132  0.05699423     0.09500
C132        C  0.05986428  0.23691393  0.00921483     0.20400
C133        C  0.05709016  0.18293894  0.01035806    -0.54400
C134        C  0.04046076  0.20868915  0.01027878     0.09600
C135        C  0.09605910  0.20740573  0.96009973    -0.53900
C136        C  0.08008686  0.23324460  0.95994557     0.10200
H137        H  0.11273842  0.20173223  0.08897191     0.14700
H138        H  0.04685333  0.25788884  0.00832398     0.00400
H139        H  0.04645227  0.16164156  0.01010921     0.15000
H140        H  0.11156649  0.20163983  0.92835372     0.14800
C141        C  0.18511856  0.09467168  0.00144700     0.86600
C142        C  0.20326230  0.10022506  0.95054021    -0.53700
C143        C  0.22908675  0.08420905  0.94688947     0.09500
C144        C  0.23398851  0.06274196  0.99422544     0.20400
C145        C  0.17954323  0.06096080  0.00068417    -0.54400
C146        C  0.20523497  0.04395728  0.99663035     0.09600
C147        C  0.20712247  0.09885622  0.04782996    -0.53900
C148        C  0.23285735  0.08270429  0.04408847     0.10200
H149        H  0.19694809  0.11697918  0.92126972     0.14700
H150        H  0.25495522  0.04964139  0.99138963     0.00400
H151        H  0.15758005  0.05125372  0.00229597     0.15000
H152        H  0.20281760  0.11405348  0.08058338     0.14800
C153        C  0.86745725  0.77123944  0.00996093     0.86600
C154        C  0.86336523  0.75146403  0.05933209    -0.53700
C155        C  0.87916092  0.72556642  0.05813205     0.09500
C156        C  0.89882578  0.72203386  0.00797110     0.20400
C157        C  0.90164184  0.77598914  0.00731493    -0.54400
C158        C  0.91829566  0.75013306  0.00619801     0.09600
C159        C  0.86080777  0.75115025  0.96200021    -0.53900
C160        C  0.87679531  0.72531831  0.96066557     0.10200
H161        H  0.84860727  0.75731005  0.09215116     0.14700
H162        H  0.91183294  0.70100926  0.00772019     0.00400
H163        H  0.91195891  0.79751543  0.00618205     0.15000
H164        H  0.84346270  0.75648458  0.93300826     0.14800
C165        C  0.77553966  0.86667338  0.00239167     0.86600
C166        C  0.75748239  0.86071643  0.95121234    -0.53700
C167        C  0.73130658  0.87615512  0.94702840     0.09500
C168        C  0.72576158  0.89738204  0.99411768     0.20400
C169        C  0.78014128  0.90059502  0.00197142    -0.54400
C170        C  0.75399453  0.91688001  0.99754158     0.09600
C171        C  0.75343626  0.86199933  0.04853639    -0.53900
C172        C  0.72711388  0.87719122  0.04387414     0.10200
H173        H  0.76410305  0.84406015  0.92217295     0.14700
H174        H  0.70455540  0.91014158  0.99044009     0.00400
H175        H  0.80158241  0.91118035  0.00516078     0.15000
H176        H  0.75832077  0.84734328  0.08196939     0.14800
C177        C  0.85893786  0.19147474  0.99023790     0.86600
C178        C  0.85523122  0.21214720  0.94166644    -0.53700
C179        C  0.87136857  0.23750177  0.94439288     0.09500
C180        C  0.89100597  0.23936228  0.99505545     0.20400
C181        C  0.89291881  0.18534735  0.99317566    -0.54400
C182        C  0.90991185  0.21039803  0.99547146     0.09600
C183        C  0.85247407  0.21103572  0.03908140    -0.53900
C184        C  0.86874894  0.23626445  0.04168656     0.10200
H185        H  0.84057147  0.20721198  0.90826910     0.14700
H186        H  0.90453085  0.25971678  0.99713625     0.00400
H187        H  0.90294998  0.16347365  0.99412350     0.15000
H188        H  0.83529968  0.20582578  0.06808806     0.14800
C189        C  0.76838995  0.09716973  0.99342909     0.86600
C190        C  0.74896025  0.10365129  0.04260051    -0.53700
C191        C  0.72351353  0.08748283  0.04613457     0.09500
C192        C  0.71989793  0.06550446  0.99926195     0.20400
C193        C  0.77445648  0.06342832  0.99605908    -0.54400
C194        C  0.74912336  0.04665755  0.99889987     0.09600
C195        C  0.74708189  0.10089582  0.94553569    -0.53900
C196        C  0.72132078  0.08533057  0.94901419     0.10200
H197        H  0.75415978  0.12133367  0.07025622     0.14700
H198        H  0.69936488  0.05209535  0.00180865     0.00400
H199        H  0.79627038  0.05307470  0.99378119     0.15000
H200        H  0.75167019  0.11566988  0.91232981     0.14800
In201      In  0.10041569  0.35692034  0.30686382     1.36900
C202        C  0.04190591  0.36078300  0.32319184     0.77600
O203        O  0.08339333  0.34449037  0.22664920    -0.60800
O204        O  0.12158959  0.32115441  0.25483084    -0.51700
C205        C  0.12122625  0.41145715  0.29458724     0.70300
O206        O  0.12463529  0.39207996  0.25867371    -0.46600
C207        C  0.12320095  0.33583850  0.39863915     0.75000
O208        O  0.05749499  0.38323022  0.31383993    -0.58400
O209        O  0.13833509  0.35161918  0.36736588    -0.48500
O210        O  0.05656868  0.33692997  0.32637612    -0.54900
C211        C  0.10156900  0.32356025  0.21918487     0.85200
O212        O  0.10783178  0.40251986  0.33570194    -0.56800
O213        O  0.09828875  0.32851143  0.37998285    -0.60000
In214      In  0.09741127  0.35936842  0.71079057     1.36900
C215        C  0.12171560  0.33603893  0.62335678     0.77600
O216        O  0.05565539  0.34658254  0.66795152    -0.60800
O217        O  0.05722965  0.38923254  0.70207495    -0.51700
C218        C  0.09590040  0.32285335  0.79585336     0.70300
O219        O  0.11970444  0.32731461  0.77013140    -0.46600
C220        C  0.11793843  0.41426539  0.72359060     0.75000
O221        O  0.13641758  0.35259624  0.65415936    -0.58400
O222        O  0.11968499  0.40010955  0.68042167    -0.48500
O223        O  0.09655353  0.32886704  0.64114473    -0.54900
C224        C  0.04218874  0.37062403  0.67653037     0.85200
O225        O  0.07414654  0.33822944  0.77980711    -0.56800
O226        O  0.10761413  0.39944422  0.76210817    -0.60000
In227      In  0.85567470  0.36210856  0.28844399     1.36900
C228        C  0.83329134  0.35449338  0.38662228     0.77600
O229        O  0.90036090  0.33970185  0.29181499    -0.60800
O230        O  0.89745117  0.38414515  0.31772047    -0.51700
C231        C  0.84828469  0.32386067  0.20756187     0.70300
O232        O  0.84049933  0.31811734  0.25483683    -0.46600
C233        C  0.84172169  0.41632427  0.25597714     0.75000
O234        O  0.82082462  0.37107330  0.35246655    -0.58400
O235        O  0.86796930  0.40591211  0.25699503    -0.48500
O236        O  0.85512395  0.33989033  0.36880112    -0.54900
C237        C  0.91387859  0.36179088  0.30985169     0.85200
O238        O  0.85627632  0.35013769  0.20093717    -0.56800
O239        O  0.82167130  0.39833474  0.26977813    -0.60000
In240      In  0.86120211  0.37261996  0.70840981     1.36900
C241        C  0.91634896  0.37809202  0.67148841     0.77600
O242        O  0.88450018  0.34579056  0.77140255    -0.60800
O243        O  0.83828822  0.33886642  0.76194361    -0.51700
C244        C  0.84204171  0.42309685  0.75119201     0.70300
O245        O  0.82483535  0.40655815  0.72494154    -0.46600
C246        C  0.83616343  0.36335278  0.61313871     0.75000
O247        O  0.90232114  0.39879409  0.69409231    -0.58400
O248        O  0.84043954  0.38880812  0.63176144    -0.48500
O249        O  0.90151741  0.35486532  0.66529138    -0.54900
C250        C  0.86211932  0.33147822  0.78602781     0.85200
O251        O  0.86765694  0.41226192  0.75959897    -0.56800
O252        O  0.84245269  0.34259496  0.64523159    -0.60000
In253      In  0.11093090  0.59325105  0.29766669     1.36900
C254        C  0.13438398  0.61628698  0.38633001     0.77600
O255        O  0.06941658  0.59558268  0.34726546    -0.60800
O256        O  0.06810214  0.57226193  0.27376466    -0.51700
C257        C  0.10891732  0.63272704  0.21693951     0.70300
O258        O  0.08666234  0.62055503  0.23719394    -0.46600
C259        C  0.12972608  0.53706299  0.28843914     0.75000
O260        O  0.14935393  0.59944959  0.35601793    -0.58400
O261        O  0.13164499  0.55494611  0.24966177    -0.48500
O262        O  0.10923550  0.62380801  0.36774575    -0.54900
C263        C  0.05399033  0.58120566  0.31428319     0.85200
O264        O  0.13349452  0.62460872  0.23781700    -0.56800
O265        O  0.12025847  0.54863845  0.33084870    -0.60000
In266      In  0.11015724  0.59808888  0.70131460     1.36900
C267        C  0.05191789  0.59809435  0.68261468     0.77600
O268        O  0.09437259  0.61197195  0.78142546    -0.60800
O269        O  0.13271269  0.63352840  0.75240424    -0.51700
C270        C  0.12498526  0.54111512  0.71614927     0.70300
O271        O  0.12268479  0.55912233  0.75440925    -0.46600
C272        C  0.13366595  0.61790728  0.61054489     0.75000
O273        O  0.06720875  0.57462944  0.68642794    -0.58400
O274        O  0.14967988  0.60511788  0.64568802    -0.48500
O275        O  0.06677469  0.62144350  0.68599989    -0.54900
C276        C  0.11282649  0.63229347  0.78825064     0.85200
O277        O  0.12229774  0.55282526  0.67064904    -0.56800
O278        O  0.10710416  0.62272743  0.62454897    -0.60000
In279      In  0.86916836  0.59031872  0.29235910     1.36900
C280        C  0.92636069  0.58027554  0.31488801     0.77600
O281        O  0.89197654  0.62387973  0.24267639    -0.60800
O282        O  0.84513810  0.62243560  0.23508427    -0.51700
C283        C  0.84615297  0.54090901  0.25311760     0.70300
O284        O  0.87107017  0.55096640  0.23930312    -0.46600
C285        C  0.84849303  0.59793733  0.39102058     0.75000
O286        O  0.91151423  0.56411688  0.28393526    -0.58400
O287        O  0.84937930  0.61897799  0.35775112    -0.48500
O288        O  0.91147673  0.60085339  0.33638306    -0.54900
C289        C  0.86916031  0.63427030  0.22009143     0.85200
O290        O  0.83107422  0.55808919  0.28255089    -0.56800
O291        O  0.85674871  0.57328401  0.37271866    -0.60000
In292      In  0.86652444  0.59706709  0.71896192     1.36900
C293        C  0.84667223  0.60257426  0.61869933     0.77600
O294        O  0.90944592  0.62036863  0.70289368    -0.60800
O295        O  0.90946340  0.57379507  0.69829815    -0.51700
C296        C  0.85936868  0.63505511  0.79964103     0.70300
O297        O  0.84594568  0.63845018  0.75544059    -0.46600
C298        C  0.84474526  0.54698302  0.75564814     0.75000
O299        O  0.85188801  0.62474776  0.64767968    -0.58400
O300        O  0.87124215  0.55503659  0.76373230    -0.48500
O301        O  0.84936076  0.57816988  0.64252762    -0.54900
C302        C  0.92432001  0.59709084  0.69475370     0.85200
O303        O  0.87410934  0.61131603  0.80341730    -0.56800
O304        O  0.82814191  0.56605676  0.73270680    -0.60000
C305        C  0.83075019  0.57878749  0.53386597    -0.21200
C306        C  0.84036321  0.60425077  0.56065396    -0.09300
C307        C  0.84806237  0.62930631  0.53039104     0.29600
C308        C  0.84814016  0.62800937  0.47440649    -0.21200
C309        C  0.84092085  0.60168713  0.44797700    -0.09300
C310        C  0.83105920  0.57743444  0.47809462     0.29600
F311        F  0.82312307  0.55189109  0.45371681    -0.19800
H312        H  0.82450334  0.55927327  0.55618588     0.17900
H313        H  0.85606508  0.64683711  0.45193887     0.18000
F314        F  0.85803884  0.65412027  0.55466988    -0.19800
C315        C  0.00407724  0.57119381  0.67653784    -0.21200
C316        C  0.01921362  0.59816000  0.67764976    -0.09300
C317        C  0.00269490  0.62480232  0.67892538     0.29600
C318        C  0.97164844  0.62422989  0.68220315    -0.21200
C319        C  0.95660676  0.59721197  0.68417081    -0.09300
C320        C  0.97302116  0.57062839  0.67966970     0.29600
F321        F  0.95928863  0.54404398  0.68049217    -0.19800
H322        H  0.01634023  0.55041315  0.67522048     0.17900
H323        H  0.95944615  0.64499084  0.68507512     0.18000
F324        F  0.01646607  0.65138063  0.67937409    -0.19800
C325        C  0.97478756  0.55821225  0.28669279    -0.21200
C326        C  0.95887496  0.57667595  0.32184845    -0.09300
C327        C  0.97467085  0.59377567  0.35908512     0.29600
C328        C  0.00584954  0.59372959  0.35857732    -0.21200
C329        C  0.02167545  0.57691945  0.32071123    -0.09300
C330        C  0.00590991  0.55839051  0.28581932     0.29600
F331        F  0.02043514  0.54134544  0.24936405    -0.19800
H332        H  0.96312634  0.54471237  0.25783378     0.17900
H333        H  0.01754901  0.60803180  0.38607123     0.18000
F334        F  0.96008605  0.61145143  0.39446216    -0.19800
C335        C  0.16141661  0.60355081  0.47107621    -0.21200
C336        C  0.14318716  0.62346205  0.44202995    -0.09300
C337        C  0.12793336  0.64595777  0.46997908     0.29600
C338        C  0.12799295  0.64618579  0.52589169    -0.21200
C339        C  0.14320248  0.62406895  0.55503043    -0.09300
C340        C  0.16135858  0.60370848  0.52725636     0.29600
F341        F  0.17579120  0.58158270  0.55393273    -0.19800
H342        H  0.17319598  0.58587225  0.45058886     0.17900
H343        H  0.11395977  0.66217610  0.54641974     0.18000
F344        F  0.11067050  0.66608790  0.44346990    -0.19800
C345        C  0.81535248  0.47061206  0.73213333    -0.21200
C346        C  0.83471353  0.45405737  0.76525937    -0.09300
C347        C  0.85197357  0.46890332  0.80357941     0.29600
C348        C  0.85234772  0.49975700  0.80445686    -0.21200
C349        C  0.83573082  0.51632823  0.76704267    -0.09300
C350        C  0.81592581  0.50159822  0.73269676     0.29600
F351        F  0.80004414  0.51681420  0.69512564    -0.19800
H352        H  0.80208486  0.45967539  0.70195601     0.17900
H353        H  0.86762531  0.51065300  0.83146322     0.18000
F354        F  0.87050366  0.45367088  0.83705100    -0.19800
C355        C  0.81454032  0.46435957  0.27056035    -0.21200
C356        C  0.83614844  0.44773433  0.24274809    -0.09300
C357        C  0.85633238  0.46244954  0.20943035     0.29600
C358        C  0.85697081  0.49323179  0.20832632    -0.21200
C359        C  0.83782689  0.51003231  0.24098891    -0.09300
C360        C  0.81537421  0.49541582  0.26991272     0.29600
F361        F  0.79616845  0.51084058  0.30149661    -0.19800
H362        H  0.79879143  0.45341241  0.29649320     0.17900
H363        H  0.87422919  0.50383112  0.18516617     0.18000
F364        F  0.87703560  0.44703655  0.18095172    -0.19800
C365        C  0.83369636  0.32960183  0.47549404    -0.21200
C366        C  0.82552628  0.35417268  0.44406493    -0.09300
C367        C  0.81560235  0.38017310  0.46960242     0.29600
C368        C  0.81691911  0.38236643  0.52544744    -0.21200
C369        C  0.82747890  0.35851824  0.55666564    -0.09300
C370        C  0.83434736  0.33155747  0.53129820     0.29600
F371        F  0.84444051  0.30790875  0.55988649    -0.19800
H372        H  0.84137406  0.30935494  0.45667655     0.17900
H373        H  0.81138765  0.40333292  0.54403742     0.18000
F374        F  0.80760692  0.40444344  0.44062273    -0.19800
C375        C  0.99623445  0.40170859  0.67818690    -0.21200
C376        C  0.01078042  0.37572394  0.66150266    -0.09300
C377        C  0.99410037  0.35333488  0.63690124     0.29600
C378        C  0.96299212  0.35540232  0.63570634    -0.21200
C379        C  0.94828369  0.37988901  0.65839979    -0.09300
C380        C  0.96519649  0.40391849  0.67647257     0.29600
F381        F  0.95182151  0.42848289  0.69689940    -0.19800
H382        H  0.00870749  0.41954462  0.69606780     0.17900
H383        H  0.95040782  0.33693107  0.62039867     0.18000
F384        F  0.00758105  0.32852971  0.61760526    -0.19800
C385        C  0.11345749  0.46344326  0.76891038    -0.21200
C386        C  0.12486018  0.44623034  0.72675080    -0.09300
C387        C  0.13919540  0.46057624  0.68401110     0.29600
C388        C  0.14064996  0.49145918  0.68235995    -0.21200
C389        C  0.12806463  0.50870338  0.72327135    -0.09300
C390        C  0.11485848  0.49439770  0.76714719     0.29600
F391        F  0.10097493  0.51031242  0.80595837    -0.19800
H392        H  0.10180547  0.45305207  0.80170450     0.17900
H393        H  0.15071750  0.50197831  0.64801323     0.18000
F394        F  0.15068938  0.44487306  0.64253250    -0.19800
C395        C  0.99350128  0.33487994  0.32492189    -0.21200
C396        C  0.00907002  0.36161103  0.32677479    -0.09300
C397        C  0.99289604  0.38846597  0.32747290     0.29600
C398        C  0.96171025  0.38838205  0.32416139    -0.21200
C399        C  0.94633544  0.36162074  0.31938945    -0.09300
C400        C  0.96248494  0.33480406  0.32084678     0.29600
F401        F  0.94841724  0.30846047  0.31722203    -0.19800
H402        H  0.00541527  0.31389880  0.32446837     0.17900
H403        H  0.94966990  0.40929405  0.32330924     0.18000
F404        F  0.00714431  0.41474833  0.32993229    -0.19800
C405        C  0.13058149  0.45739910  0.24020373    -0.21200
C406        C  0.13078927  0.44255117  0.28974367    -0.09300
C407        C  0.13628261  0.45875899  0.33648884     0.29600
C408        C  0.13885536  0.48937541  0.33437440    -0.21200
C409        C  0.13563651  0.50475512  0.28584041    -0.09300
C410        C  0.13284315  0.48843037  0.23814449     0.29600
F411        F  0.12964694  0.50245012  0.19038531    -0.19800
H412        H  0.12642084  0.44530205  0.20365358     0.17900
H413        H  0.14144325  0.50129131  0.37160546     0.18000
F414        F  0.13747044  0.44516718  0.38493776    -0.19800
C415        C  0.14997050  0.34776888  0.54006770    -0.21200
C416        C  0.13069302  0.32886371  0.56784902    -0.09300
C417        C  0.11469727  0.30765613  0.53874283     0.29600
C418        C  0.11517484  0.30786571  0.48288562    -0.21200
C419        C  0.13153371  0.32916335  0.45487152    -0.09300
C420        C  0.15042690  0.34798959  0.48390716     0.29600
F421        F  0.16662981  0.36888162  0.45842733    -0.19800
H422        H  0.16242842  0.36438718  0.56149051     0.17900
H423        H  0.10069467  0.29290415  0.46153905     0.18000
F424        F  0.09635371  0.28849653  0.56402481    -0.19800
C425        C  0.89423938  0.27653397  0.88709000    -0.21200
C426        C  0.86868653  0.26158884  0.90384397    -0.09300
C427        C  0.84073786  0.27009043  0.88211715     0.29600
C428        C  0.83865539  0.29293591  0.84425406    -0.21200
C429        C  0.86428218  0.30774924  0.82716384    -0.09300
C430        C  0.89221501  0.29918305  0.84895626     0.29600
F431        F  0.91777454  0.31231576  0.83291166    -0.19800
H432        H  0.91598468  0.27027687  0.90281634     0.17900
H433        H  0.81692556  0.29905873  0.82832958     0.18000
F434        F  0.81525954  0.25692353  0.89845383    -0.19800
C435        C  0.85733119  0.25012622  0.13667085    -0.21200
C436        C  0.86322696  0.25898462  0.08381440    -0.09300
C437        C  0.86210725  0.28934303  0.07139203     0.29600
C438        C  0.85608717  0.31024583  0.11141810    -0.21200
C439        C  0.85061479  0.30137873  0.16444633    -0.09300
C440        C  0.85101949  0.27096631  0.17652278     0.29600
F441        F  0.84648756  0.26131248  0.22724827    -0.19800
H442        H  0.85804856  0.22691959  0.14743467     0.17900
H443        H  0.85593941  0.33349861  0.10094700     0.18000
F444        F  0.86592556  0.29886298  0.02039250    -0.19800
C445        C  0.84608503  0.13554915  0.99333200    -0.21200
C446        C  0.83725423  0.16548788  0.98819202    -0.09300
C447        C  0.80648372  0.17189594  0.98376968     0.29600
C448        C  0.78556141  0.14946731  0.98478257    -0.21200
C449        C  0.79398771  0.11949822  0.99024407    -0.09300
C450        C  0.82484964  0.11280994  0.99467119     0.29600
F451        F  0.83499476  0.08482763  0.00240957    -0.19800
H452        H  0.86927725  0.12933782  0.99782512     0.17900
H453        H  0.76216958  0.15572729  0.98212472     0.18000
F454        F  0.79636200  0.20025156  0.97964781    -0.19800
C455        C  0.77099370  0.96645520  0.03264780    -0.21200
C456        C  0.75281555  0.95018430  0.99762794    -0.09300
C457        C  0.73331501  0.96603315  0.96333923     0.29600
C458        C  0.73191983  0.99712919  0.96466114    -0.21200
C459        C  0.75005765  0.01338059  0.99958017    -0.09300
C460        C  0.76969673  0.99757719  0.03367748     0.29600
F461        F  0.78718176  0.01219424  0.06900600    -0.19800
H462        H  0.78598441  0.95501731  0.05998618     0.17900
H463        H  0.71720827  0.00853363  0.93703544     0.18000
F464        F  0.71643644  0.95159996  0.92682868    -0.19800
C465        C  0.85843819  0.68781743  0.82819436    -0.21200
C466        C  0.86019479  0.65780490  0.84211096    -0.09300
C467        C  0.86685183  0.65006197  0.89544992     0.29600
C468        C  0.87219262  0.67201904  0.93370384    -0.21200
C469        C  0.87129549  0.70210092  0.91949066    -0.09300
C470        C  0.86421904  0.70975077  0.86612190     0.29600
F471        F  0.86432685  0.73836358  0.84969142    -0.19800
H472        H  0.85407372  0.69431186  0.78715467     0.17900
H473        H  0.87689435  0.66543586  0.97456081     0.18000
F474        F  0.86830299  0.62122757  0.91055939    -0.19800
C475        C  0.90178527  0.68858607  0.12075400    -0.21200
C476        C  0.87618144  0.70248676  0.10005243    -0.09300
C477        C  0.84794777  0.69400415  0.11922823     0.29600
C478        C  0.84559842  0.67185896  0.15829921    -0.21200
C479        C  0.87130501  0.65799208  0.17920363    -0.09300
C480        C  0.89951582  0.66676697  0.16013264     0.29600
F481        F  0.92507763  0.65406570  0.17900945    -0.19800
H482        H  0.92368959  0.69487339  0.10677088     0.17900
H483        H  0.82368187  0.66549623  0.17204957     0.18000
F484        F  0.82257805  0.70642091  0.09897546    -0.19800
C485        C  0.85417394  0.82769981  0.00768969    -0.21200
C486        C  0.84563274  0.79776864  0.01068941    -0.09300
C487        C  0.81485464  0.79174700  0.01270682     0.29600
C488        C  0.79367551  0.81434778  0.01004052    -0.21200
C489        C  0.80168781  0.84429786  0.00667389    -0.09300
C490        C  0.83254190  0.85077911  0.00590341     0.29600
F491        F  0.84221727  0.87893843  0.00213828    -0.19800
H492        H  0.87745496  0.83353487  0.00608268     0.17900
H493        H  0.77035366  0.80822689  0.01032476     0.18000
F494        F  0.80495314  0.76353325  0.01622911    -0.19800
C495        C  0.06386748  0.29413372  0.85856318    -0.21200
C496        C  0.09262488  0.30074804  0.83954684    -0.09300
C497        C  0.11722539  0.28499902  0.86071018     0.29600
C498        C  0.11298905  0.26319118  0.89983866    -0.21200
C499        C  0.08419064  0.25649028  0.91842552    -0.09300
C500        C  0.05962470  0.27217768  0.89727202     0.29600
F501        F  0.03139059  0.26543528  0.91219940    -0.19800
H502        H  0.04440664  0.30552321  0.84246378     0.17900
H503        H  0.13234375  0.25161585  0.91592137     0.18000
F504        F  0.14533044  0.29056052  0.84362820    -0.19800
C505        C  0.12115242  0.28344715  0.15910205    -0.21200
C506        C  0.09791243  0.30265205  0.17419659    -0.09300
C507        C  0.07012961  0.30049485  0.14802063     0.29600
C508        C  0.06542785  0.27875741  0.10948825    -0.21200
C509        C  0.08805864  0.25845999  0.09595288    -0.09300
C510        C  0.11655905  0.26191737  0.11975702     0.29600
F511        F  0.14035647  0.24523697  0.10420026    -0.19800
H512        H  0.14291524  0.28510419  0.17775783     0.17900
H513        H  0.04372207  0.27767924  0.09135761     0.18000
F514        F  0.04686718  0.31855808  0.16117082    -0.19800
C515        C  0.99202275  0.18898656  0.97365838    -0.21200
C516        C  0.00692864  0.20901262  0.00714787    -0.09300
C517        C  0.98949983  0.22918702  0.03687432     0.29600
C518        C  0.95823136  0.22963480  0.03243250    -0.21200
C519        C  0.94336620  0.20969644  0.99893437    -0.09300
C520        C  0.96072801  0.18923186  0.96952325     0.29600
F521        F  0.94762601  0.17003814  0.93533813    -0.19800
H522        H  0.00467781  0.17337160  0.94971796     0.17900
H523        H  0.94555001  0.24520181  0.05643651     0.18000
F524        F  0.00242189  0.24764824  0.07224343    -0.19800
C525        C  0.12893444  0.10914074  0.00996664    -0.21200
C526        C  0.15918446  0.11695458  0.00551155    -0.09300
C527        C  0.16610332  0.14729825  0.00494263     0.29600
C528        C  0.14377275  0.16877562  0.00684759    -0.21200
C529        C  0.11339224  0.16142367  0.00958545    -0.09300
C530        C  0.10622954  0.13101460  0.01239125     0.29600
F531        F  0.07778713  0.12189077  0.01838117    -0.19800
H532        H  0.12254373  0.08621916  0.01185337     0.17900
H533        H  0.15038759  0.19174704  0.00573060     0.18000
F534        F  0.19485271  0.15642398  0.00199726    -0.19800
C535        C  0.12461674  0.69622083  0.88504210    -0.21200
C536        C  0.09664727  0.69777176  0.91134233    -0.09300
C537        C  0.07531664  0.67634743  0.89804616     0.29600
C538        C  0.08163873  0.65465039  0.85991724    -0.21200
C539        C  0.10902919  0.65380200  0.83264666    -0.09300
C540        C  0.13059778  0.67485323  0.84566765     0.29600
F541        F  0.15738158  0.67489762  0.82043414    -0.19800
H542        H  0.14221232  0.71145329  0.89485680     0.17900
H543        H  0.06431664  0.63900585  0.85025390     0.18000
F544        F  0.04768494  0.67669972  0.91961005    -0.19800
C545        C  0.12421199  0.69210695  0.11218617    -0.21200
C546        C  0.09532242  0.69755296  0.09132897    -0.09300
C547        C  0.07152905  0.68087902  0.11116011     0.29600
C548        C  0.07650244  0.65976198  0.15128686    -0.21200
C549        C  0.10523698  0.65461326  0.17279105    -0.09300
C550        C  0.12917533  0.67095176  0.15252495     0.29600
F551        F  0.15722713  0.66688237  0.17207235    -0.19800
H552        H  0.14311568  0.70426467  0.09717540     0.17900
H553        H  0.05753177  0.64762196  0.16611631     0.18000
F554        F  0.04318225  0.68576635  0.09368085    -0.19800
C555        C  0.96862809  0.76932784  0.03518784    -0.21200
C556        C  0.95193087  0.74925748  0.00473238    -0.09300
C557        C  0.96770147  0.72821853  0.97384989     0.29600
C558        C  0.99915394  0.72755580  0.97345678    -0.21200
C559        C  0.01589281  0.74764445  0.00378163    -0.09300
C560        C  0.00004226  0.76847382  0.03514100     0.29600
F561        F  0.01481741  0.78749780  0.06735301    -0.19800
H562        H  0.95730359  0.78540870  0.06020279     0.17900
H563        H  0.01036291  0.71169360  0.94820823     0.18000
F564        F  0.95283371  0.70888522  0.94237102    -0.19800
C565        C  0.22711738  0.96339985  0.96617235    -0.21200
C566        C  0.20641131  0.94742669  0.99654721    -0.09300
C567        C  0.18498716  0.96354793  0.02623832     0.29600
C568        C  0.18457206  0.99462854  0.02557753    -0.21200
C569        C  0.20540576  0.01065128  0.99543786    -0.09300
C570        C  0.22655819  0.99449832  0.96516418     0.29600
F571        F  0.24613336  0.00857056  0.93290330    -0.19800
H572        H  0.24351663  0.95175794  0.94214307     0.17900
H573        H  0.16825831  0.00617802  0.04991676     0.18000
F574        F  0.16508324  0.94940271  0.05775821    -0.19800
C575        C  0.17315187  0.81036903  0.00358430    -0.21200
C576        C  0.16411964  0.84030038  0.00232222    -0.09300
C577        C  0.13304619  0.84651158  0.00238293     0.29600
C578        C  0.11223933  0.82334122  0.00251097    -0.21200
C579        C  0.12167205  0.79345507  0.00275977    -0.09300
C580        C  0.15264707  0.78753569  0.00367535     0.29600
F581        F  0.16334511  0.75929980  0.00460439    -0.19800
H582        H  0.19668645  0.80450378  0.00413168     0.17900
H583        H  0.08883526  0.82923125  0.00230571     0.18000
F584        F  0.12218373  0.87454398  0.00265139    -0.19800
C585        C  0.31152247  0.86091778  0.88755975    -0.21200
C586        C  0.30364872  0.85263122  0.83522923    -0.09300
C587        C  0.27318650  0.85141029  0.82166246     0.29600
C588        C  0.25132935  0.85914840  0.85905712    -0.21200
C589        C  0.25908361  0.86785313  0.91124231    -0.09300
C590        C  0.28956954  0.86829716  0.92532402     0.29600
F591        F  0.29831959  0.87512960  0.97573981    -0.19800
H592        H  0.33480261  0.86224331  0.89905592     0.17900
H593        H  0.22814802  0.85867017  0.84672518     0.18000
F594        F  0.26439267  0.84388136  0.77156591    -0.19800
C595        C  0.36989428  0.81667804  0.47546420    -0.21200
C596        C  0.34819125  0.83257158  0.44617827    -0.09300
C597        C  0.32465438  0.84656476  0.47376201     0.29600
C598        C  0.32452539  0.84691051  0.52965256    -0.21200
C599        C  0.34758818  0.83308348  0.55902704    -0.09300
C600        C  0.36952888  0.81668445  0.53147076     0.29600
F601        F  0.39226418  0.80312892  0.55831226    -0.19800
H602        H  0.38827451  0.80583450  0.45501379     0.17900
H603        H  0.30739758  0.85971574  0.54992615     0.18000
F604        F  0.30360227  0.86268023  0.44704264    -0.19800
C605        C  0.29437710  0.89491014  0.15124720    -0.21200
C606        C  0.30280987  0.86674055  0.17073813    -0.09300
C607        C  0.28907675  0.84170012  0.14899349     0.29600
C608        C  0.26731256  0.84495733  0.10896691    -0.21200
C609        C  0.25880179  0.87315840  0.08986708    -0.09300
C610        C  0.27268146  0.89814075  0.11123098     0.29600
F611        F  0.26448851  0.92574532  0.09504213    -0.19800
H612        H  0.30437587  0.91465526  0.16746817     0.17900
H613        H  0.25714055  0.82532413  0.09264531     0.18000
F614        F  0.29650108  0.81413322  0.16642068    -0.19800
C615        C  0.33207688  0.99703693  0.70788551    -0.21200
C616        C  0.35498412  0.01280149  0.68305881    -0.09300
C617        C  0.37867851  0.99724856  0.65874581     0.29600
C618        C  0.37998027  0.96638714  0.66186110    -0.21200
C619        C  0.35776332  0.95082530  0.68923117    -0.09300
C620        C  0.33337674  0.96640019  0.71107615     0.29600
F621        F  0.31097115  0.95217295  0.73651686    -0.19800
H622        H  0.31343506  0.00847577  0.72643986     0.17900
H623        H  0.39880326  0.95475059  0.64432127     0.18000
F624        F  0.40096940  0.01176269  0.63354666    -0.19800
C625        C  0.30217227  0.10067353  0.87695304    -0.21200
C626        C  0.29259098  0.10693839  0.82449959    -0.09300
C627        C  0.26199808  0.10485034  0.81226133     0.29600
C628        C  0.24164965  0.09669823  0.85185795    -0.21200
C629        C  0.25129926  0.09035025  0.90430736    -0.09300
C630        C  0.28185464  0.09248472  0.91647094     0.29600
F631        F  0.29213490  0.08762290  0.96684736    -0.19800
H632        H  0.32562992  0.10171128  0.88735470     0.17900
H633        H  0.21824934  0.09508325  0.84133637     0.18000
F634        F  0.25180493  0.10962752  0.76175315    -0.19800
C635        C  0.39701639  0.99746638  0.33620670    -0.21200
C636        C  0.36973830  0.01308326  0.33762757    -0.09300
C637        C  0.34320798  0.99749762  0.34644496     0.29600
C638        C  0.34381516  0.96670900  0.34888238    -0.27600
C639        C  0.37073844  0.95094634  0.34238547    -0.09300
C640        C  0.39760731  0.96659940  0.33866137     0.29600
F641        F  0.42421905  0.95215923  0.33405558    -0.19800
H642        H  0.41777732  0.00904407  0.33019564     0.17900
H643        H  0.32283877  0.95517449  0.35214146     0.18000
F644        F  0.31636064  0.01170571  0.34846843    -0.19800
C645        C  0.32257891  0.12256147  0.45991414    -0.21200
C646        C  0.34910624  0.13176086  0.43564461    -0.09300
C647        C  0.37205512  0.14321204  0.46780038     0.29600
C648        C  0.36911411  0.14364453  0.52347041    -0.21200
C649        C  0.34374498  0.13178179  0.54793478    -0.09300
C650        C  0.32004000  0.12208144  0.51561682     0.29600
F651        F  0.29524337  0.11028883  0.53781166    -0.19800
H652        H  0.30478180  0.11332710  0.43601059     0.17900
H653        H  0.38777532  0.15093255  0.54752451     0.18000
F654        F  0.39808107  0.15220608  0.44572912    -0.19800
C655        C  0.29685930  0.06595461  0.14007449    -0.21200
C656        C  0.30305388  0.09420096  0.16074708    -0.09300
C657        C  0.28684101  0.11867995  0.14101859     0.29600
C658        C  0.26452909  0.11476121  0.10245646    -0.21200
C659        C  0.25783808  0.08642068  0.08280092    -0.09300
C660        C  0.27455756  0.06204328  0.10148638     0.29600
F661        F  0.26850889  0.03427474  0.08444743    -0.19800
H662        H  0.30894921  0.04664275  0.15456530     0.17900
H663        H  0.25236735  0.13402765  0.08797346     0.18000
F664        F  0.29217254  0.14632647  0.15941840    -0.19800
C665        C  0.50169970  0.82218869  0.72518792    -0.21200
C666        C  0.51726658  0.84655444  0.74551965    -0.09300
C667        C  0.50105413  0.86948388  0.77044804     0.29600
C668        C  0.46995106  0.86925960  0.77080380    -0.21200
C669        C  0.45420157  0.84620096  0.74661834    -0.09300
C670        C  0.47032414  0.82194908  0.72568045     0.29600
F671        F  0.45590081  0.79914814  0.70221317    -0.19800
H672        H  0.51369712  0.80427061  0.70581088     0.17900
H673        H  0.45812702  0.88798372  0.78796486     0.18000
F674        F  0.51518994  0.89297468  0.79225091    -0.19800
C675        C  0.65846031  0.85798860  0.87675903    -0.21200
C676        C  0.66767429  0.85460229  0.82342876    -0.09300
C677        C  0.69810478  0.85809297  0.81113837     0.29600
C678        C  0.71854133  0.86542245  0.85133386    -0.21200
C679        C  0.70912736  0.86957737  0.90439885    -0.09300
C680        C  0.67887651  0.86538071  0.91685922     0.29600
F681        F  0.66903775  0.86769900  0.96794192    -0.19800
H682        H  0.63518913  0.85552776  0.88736306     0.17900
H683        H  0.74176190  0.86835511  0.84079981     0.18000
F684        F  0.70800265  0.85559350  0.76006850    -0.19800
C685        C  0.49471482  0.86196085  0.20340528    -0.21200
C686        C  0.51143415  0.84140112  0.23349945    -0.09300
C687        C  0.49638634  0.81873526  0.26064088     0.29600
C688        C  0.46503485  0.81889629  0.26240034    -0.21200
C689        C  0.44846161  0.84160986  0.23716555    -0.09300
C690        C  0.46360815  0.86216983  0.20515607     0.29600
F691        F  0.44854853  0.88414853  0.17916572    -0.19800
H692        H  0.50577968  0.87946157  0.18177294     0.17900
H693        H  0.45392303  0.80281774  0.28729583     0.18000
F694        F  0.51180582  0.79846183  0.29020441    -0.19800
C695        C  0.58571940  0.82592878  0.46772170    -0.21200
C696        C  0.61064041  0.83318748  0.43654989    -0.09300
C697        C  0.63841393  0.83698655  0.46203263     0.29600
C698        C  0.64031218  0.83639951  0.51799726    -0.21200
C699        C  0.61478587  0.83136942  0.54905369    -0.09300
C700        C  0.58768204  0.82506887  0.52339921     0.29600
F701        F  0.56225680  0.82166586  0.55209331    -0.19800
H702        H  0.56406422  0.82300975  0.44919695     0.17900
H703        H  0.66132508  0.84158353  0.53715908     0.18000
F704        F  0.66310026  0.84380644  0.43340959    -0.19800
C705        C  0.68372132  0.89742150  0.09541338    -0.21200
C706        C  0.70190792  0.87318035  0.08194438    -0.09300
C707        C  0.69575514  0.84535991  0.10509748     0.29600
C708        C  0.67293450  0.84248957  0.14293143    -0.21200
C709        C  0.65542743  0.86704244  0.15765345    -0.09300
C710        C  0.66068691  0.89447723  0.13252783     0.29600
F711        F  0.64404345  0.91882520  0.14461471    -0.19800
H712        H  0.68778792  0.91900007  0.07826181     0.17900
H713        H  0.66911483  0.82108059  0.16099459     0.18000
F714        F  0.71132425  0.82074814  0.09055070    -0.19800
C715        C  0.48727188  0.09837500  0.78352478    -0.21200
C716        C  0.50341703  0.12057173  0.75758957    -0.09300
C717        C  0.48770655  0.14425602  0.73342952     0.29600
C718        C  0.45637162  0.14396802  0.73089858    -0.21200
C719        C  0.44052712  0.12001988  0.75209271    -0.09300
C720        C  0.45621206  0.09798045  0.78076705     0.29600
F721        F  0.44168977  0.07487050  0.80313159    -0.19800
H722        H  0.49881598  0.08003348  0.80278942     0.17900
H723        H  0.44474114  0.16116867  0.70864068     0.18000
F724        F  0.50255077  0.16599310  0.70758867    -0.19800
C725        C  0.62481465  0.99927347  0.68584476    -0.21200
C726        C  0.59783416  0.01287195  0.67031918    -0.09300
C727        C  0.57364744  0.99532490  0.65481621     0.29600
C728        C  0.57624477  0.96455603  0.65672712    -0.21200
C729        C  0.60266935  0.95102550  0.67537768    -0.09300
C730        C  0.62717044  0.96860438  0.68906399     0.29600
F731        F  0.65309743  0.95625768  0.70710772    -0.19800
H732        H  0.64360069  0.01241595  0.69855106     0.17900
H733        H  0.55712123  0.95135673  0.64603564     0.18000
F734        F  0.54726521  0.00785936  0.63957274    -0.19800
C735        C  0.67974989  0.06562571  0.89309283    -0.21200
C736        C  0.69617527  0.08985921  0.91062804    -0.09300
C737        C  0.68845454  0.11829883  0.89104269     0.29600
C738        C  0.66543696  0.12196957  0.85337916    -0.21200
C739        C  0.64950733  0.09750201  0.83497204    -0.09300
C740        C  0.65692301  0.06920608  0.85541088     0.29600
F741        F  0.64284322  0.04465367  0.83773841    -0.19800
H742        H  0.68499435  0.04365469  0.90749904     0.17900
H743        H  0.66010639  0.14393620  0.83857779     0.18000
F744        F  0.70263421  0.14268720  0.90914176    -0.19800
C745        C  0.46394094  0.10485145  0.20102483    -0.21200
C746        C  0.44715302  0.12555144  0.23029948    -0.09300
C747        C  0.46207015  0.14904538  0.25542352     0.29600
C748        C  0.49344432  0.14927809  0.25698848    -0.21200
C749        C  0.51003270  0.12616291  0.23352166    -0.09300
C750        C  0.49501642  0.10505333  0.20262348     0.29600
F751        F  0.51030528  0.08301193  0.17758822    -0.19800
H752        H  0.45304288  0.08686988  0.18046769     0.17900
H753        H  0.50456803  0.16590223  0.28065149     0.18000
F754        F  0.44657207  0.16994640  0.28304381    -0.19800
C755        C  0.56655304  0.96968235  0.31841923    -0.21200
C756        C  0.59349760  0.95373740  0.32416861    -0.09300
C757        C  0.62022063  0.96927079  0.33161122     0.29600
C758        C  0.62005722  0.00012510  0.33013926    -0.21200
C759        C  0.59332671  0.01595866  0.32182452    -0.09300
C760        C  0.56639307  0.00054447  0.31720254     0.29600
F761        F  0.54025270  0.01513441  0.30748549    -0.19800
H762        H  0.54571550  0.95825583  0.31214992     0.17900
H763        H  0.64102060  0.01165654  0.33390367     0.18000
F764        F  0.64672043  0.95474907  0.33762746    -0.19800
C765        C  0.57741174  0.14286263  0.46961697    -0.21200
C766        C  0.60398331  0.13478881  0.44347843    -0.09300
C767        C  0.62958633  0.12846760  0.47453737     0.29600
C768        C  0.62778064  0.12782617  0.53050609    -0.21200
C769        C  0.60037467  0.13293180  0.55627301    -0.09300
C770        C  0.57545033  0.14164204  0.52535653     0.29600
F771        F  0.54860320  0.14707221  0.54865603    -0.19800
H772        H  0.55736737  0.14783803  0.44678918     0.17900
H773        H  0.64729895  0.12111434  0.55339650     0.18000
F774        F  0.65586207  0.12107224  0.45089598    -0.19800
C775        C  0.68586438  0.11061075  0.17670978    -0.21200
C776        C  0.65551126  0.10846873  0.16354842    -0.09300
C777        C  0.64765253  0.09932050  0.11157472     0.29600
C778        C  0.66977605  0.09234290  0.07396979    -0.21200
C779        C  0.70020264  0.09391114  0.08738838    -0.09300
C780        C  0.70798373  0.10314040  0.13949476     0.29600
F781        F  0.73693663  0.10376741  0.15554023    -0.19800
H782        H  0.69255070  0.11678901  0.21680262     0.17900
H783        H  0.66298402  0.08596121  0.03407077     0.18000
F784        F  0.61855024  0.09680706  0.09714783    -0.19800
loop_ 
_geom_bond_atom_site_label_1 
_geom_bond_atom_site_label_2 
_geom_bond_distance 
_geom_bond_site_symmetry_2 
_ccdc_geom_bond_type 
In1           O3   2.240       .  S
In1           O4   2.276       .  S
In1          O12   2.275       .  S
In1           O6   2.203       .  S
In1           O8   2.248       .  S
In1           O9   2.259       .  S
In1          O10   2.241       .  S
In1          O13   2.258       .  S
C2            O8   1.258       .  A
C2           O10   1.257       .  A
C2          C759   1.470       .  S
O3           C11   1.254       .  A
O4           C11   1.263       .  A
C5           O12   1.269       .  A
C5            O6   1.261       .  A
C5          C749   1.479       .  S
C7            O9   1.259       .  A
C7           O13   1.260       .  A
C7          C766   1.483       .  S
C11         C776   1.484       .  S
In14         O16   2.228       .  S
In14         O17   2.235       .  S
In14         O25   2.287       .  S
In14         O19   2.211       .  S
In14         O21   2.270       .  S
In14         O22   2.209       .  S
In14         O23   2.234       .  S
In14         O26   2.272       .  S
C15          O21   1.262       .  A
C15          O23   1.257       .  A
C15         C769   1.481       .  S
O16          C24   1.259       .  A
O17          C24   1.259       .  A
C18          O25   1.267       .  A
C18          O19   1.254       .  A
C18         C739   1.483       .  S
C20          O22   1.259       .  A
C20          O26   1.266       .  A
C20         C716   1.478       .  S
C24         C726   1.466       .  S
In27         O29   2.241       .  S
In27         O30   2.237       .  S
In27         O38   2.287       .  S
In27         O32   2.216       .  S
In27         O34   2.271       .  S
In27         O35   2.214       .  S
In27         O36   2.231       .  S
In27         O39   2.274       .  S
C28          O34   1.262       .  A
C28          O36   1.257       .  A
C28         C696   1.480       .  S
O29          C37   1.260       .  A
O30          C37   1.260       .  A
C31          O38   1.266       .  A
C31          O32   1.253       .  A
C31         C709   1.484       .  S
C33          O35   1.258       .  A
C33          O39   1.265       .  A
C33         C686   1.479       .  S
C37         C756   1.475       .  S
In40         O42   2.246       .  S
In40         O43   2.259       .  S
In40         O51   2.272       .  S
In40         O45   2.215       .  S
In40         O47   2.242       .  S
In40         O48   2.241       .  S
In40         O49   2.229       .  S
In40         O52   2.253       .  S
C41          O47   1.259       .  A
C41          O49   1.258       .  A
C41         C729   1.467       .  S
O42          C50   1.258       .  A
O43          C50   1.259       .  A
C44          O51   1.267       .  A
C44          O45   1.260       .  A
C44         C666   1.481       .  S
C46          O48   1.257       .  A
C46          O52   1.261       .  A
C46         C699   1.472       .  S
C50         C676   1.482       .  S
In53         O55   2.232       .  S
In53         O56   2.241       .  S
In53         O64   2.228       .  S
In53         O58   2.280       .  S
In53         O60   2.258       .  S
In53         O61   2.217       .  S
In53         O62   2.233       .  S
In53         O65   2.268       .  S
C54          O60   1.263       .  A
C54          O62   1.258       .  A
C54         C646   1.475       .  S
O55          C63   1.259       .  A
O56          C63   1.261       .  A
C57          O64   1.255       .  A
C57          O58   1.266       .  A
C57         C656   1.484       .  S
C59          O61   1.260       .  A
C59          O65   1.264       .  A
C59         C746   1.480       .  S
C63         C636   1.473       .  S
In66         O68   2.236       .  S
In66         O69   2.266       .  S
In66         O77   2.270       .  S
In66         O71   2.209       .  S
In66         O73   2.253       .  S
In66         O74   2.236       .  S
In66         O75   2.213       .  S
In66         O78   2.261       .  S
C67          O73   1.261       .  A
C67          O75   1.257       .  A
C67         C616   1.469       .  S
O68          C76   1.256       .  A
O69          C76   1.261       .  A
C70          O77   1.267       .  A
C70          O71   1.260       .  A
C70         C719   1.478       .  S
C72          O74   1.257       .  A
C72          O78   1.261       .  A
C72         C649   1.476       .  S
C76         C626   1.481       .  S
In79         O81   2.223       .  S
In79         O82   2.287       .  S
In79         O90   2.271       .  S
In79         O84   2.217       .  S
In79         O86   2.248       .  S
In79         O87   2.256       .  S
In79         O88   2.235       .  S
In79         O91   2.245       .  S
C80          O86   1.259       .  A
C80          O88   1.258       .  A
C80         C639   1.473       .  S
O81          C89   1.254       .  A
O82          C89   1.266       .  A
C83          O90   1.265       .  A
C83          O84   1.260       .  A
C83         C689   1.482       .  S
C85          O87   1.261       .  A
C85          O91   1.258       .  A
C85         C596   1.477       .  S
C89         C606   1.485       .  S
In92         O94   2.218       .  S
In92         O95   2.251       .  S
In92        O103   2.256       .  S
In92         O97   2.254       .  S
In92         O99   2.267       .  S
In92        O100   2.220       .  S
In92        O101   2.234       .  S
In92        O104   2.271       .  S
C93          O99   1.263       .  A
C93         O101   1.257       .  A
C93         C599   1.480       .  S
O94         C102   1.258       .  A
O95         C102   1.261       .  A
C96         O103   1.258       .  A
C96          O97   1.260       .  A
C96         C586   1.485       .  S
C98         O100   1.259       .  A
C98         O104   1.265       .  A
C98         C669   1.481       .  S
C102        C619   1.469       .  S
C105        C106   1.537       .  S
C105        C111   1.536   1_554  S
C105        C109   1.548   1_554  S
C105        C576   1.541       .  S
C106        H113   1.087       .  S
C106        C107   1.363       .  D
C107        C108   1.541   1_554  S
C107        C609   1.487       .  S
C108        C112   1.546       .  S
C108        C110   1.552       .  S
C108        H114   1.108       .  S
C109        H115   1.079       .  S
C109        C110   1.376       .  D
C110        C566   1.505       .  S
C111        H116   1.086       .  S
C111        C112   1.364       .  D
C112        C589   1.496       .  S
C117        C118   1.535   1_554  S
C117        C123   1.535       .  S
C117        C121   1.544       .  S
C117        C579   1.537       .  S
C118        H125   1.085       .  S
C118        C119   1.368       .  D
C119        C120   1.555   1_556  S
C119        C536   1.509       .  S
C120        C124   1.546       .  S
C120        C122   1.559       .  S
C120        H126   1.104       .  S
C121        H127   1.082       .  S
C121        C122   1.375       .  D
C122        C559   1.511       .  S
C123        H128   1.086       .  S
C123        C124   1.363       .  D
C124        C546   1.495       .  S
C129        C130   1.535       .  S
C129        C135   1.541   1_554  S
C129        C133   1.545       .  S
C129        C529   1.538       .  S
C130        H137   1.085       .  S
C130        C131   1.365       .  D
C131        C132   1.548       .  S
C131        C509   1.499       .  S
C132        C136   1.539   1_554  S
C132        C134   1.553       .  S
C132        H138   1.107       .  S
C133        H139   1.080       .  S
C133        C134   1.375       .  D
C134        C516   1.504       .  S
C135        H140   1.087       .  S
C135        C136   1.363       .  D
C136        C499   1.489       .  S
C141        C142   1.534   1_554  S
C141        C147   1.533       .  S
C141        C145   1.548       .  S
C141        C526   1.532       .  S
C142        H149   1.087       .  S
C142        C143   1.361       .  D
C143        C144   1.543       .  S
C143        C629   1.487       .  S
C144        C148   1.542   1_556  S
C144        C146   1.553       .  S
C144        H150   1.107       .  S
C145        H151   1.083       .  S
C145        C146   1.380   1_554  D
C146        C569   1.507       .  S
C147        H152   1.087       .  S
C147        C148   1.361       .  D
C148        C659   1.489       .  S
C153        C154   1.536       .  S
C153        C159   1.537   1_554  S
C153        C157   1.550       .  S
C153        C486   1.539       .  S
C154        H161   1.086       .  S
C154        C155   1.361       .  D
C155        C156   1.542       .  S
C155        C476   1.485       .  S
C156        C160   1.544   1_554  S
C156        C158   1.551       .  S
C156        H162   1.109       .  S
C157        H163   1.083       .  S
C157        C158   1.380       .  D
C158        C556   1.507       .  S
C159        H164   1.086       .  S
C159        C160   1.363       .  D
C160        C469   1.494       .  S
C165        C166   1.538   1_554  S
C165        C171   1.539       .  S
C165        C169   1.550       .  S
C165        C489   1.542       .  S
C166        H173   1.087       .  S
C166        C167   1.361       .  D
C167        C168   1.540       .  S
C167        C679   1.488       .  S
C168        C172   1.542   1_556  S
C168        C170   1.553       .  S
C168        H174   1.109       .  S
C169        H175   1.081       .  S
C169        C170   1.380   1_554  D
C170        C456   1.507       .  S
C171        H176   1.086       .  S
C171        C172   1.362       .  D
C172        C706   1.491       .  S
C177        C178   1.538       .  S
C177        C183   1.536   1_556  S
C177        C181   1.545       .  S
C177        C446   1.535       .  S
C178        H185   1.086       .  S
C178        C179   1.365       .  D
C179        C180   1.543       .  S
C179        C426   1.490       .  S
C180        C184   1.544   1_556  S
C180        C182   1.551       .  S
C180        H186   1.109       .  S
C181        H187   1.082       .  S
C181        C182   1.374       .  D
C182        C519   1.501       .  S
C183        H188   1.086       .  S
C183        C184   1.363       .  D
C184        C436   1.492       .  S
C189        C190   1.535   1_556  S
C189        C195   1.537       .  S
C189        C193   1.548       .  S
C189        C449   1.539       .  S
C190        H197   1.085       .  S
C190        C191   1.365       .  D
C191        C192   1.548   1_554  S
C191        C779   1.496       .  S
C192        C196   1.544       .  S
C192        C194   1.553       .  S
C192        H198   1.110   1_556  S
C193        H199   1.080       .  S
C193        C194   1.374       .  D
C194        C459   1.505       .  S
C195        H200   1.086       .  S
C195        C196   1.362       .  D
C196        C736   1.489       .  S
In201       O203   2.220       .  S
In201       O204   2.278       .  S
In201       O212   2.215       .  S
In201       O206   2.280       .  S
In201       O208   2.256       .  S
In201       O209   2.281       .  S
In201       O210   2.227       .  S
In201       O213   2.235       .  S
C202        O208   1.261       .  A
C202        O210   1.258       .  A
C202        C396   1.474       .  S
O203        C211   1.256       .  A
O204        C211   1.266       .  A
C205        O212   1.260       .  A
C205        O206   1.265       .  A
C205        C406   1.480       .  S
C207        O209   1.262       .  A
C207        O213   1.257       .  A
C207        C419   1.483       .  S
C211        C506   1.481       .  S
In214       O216   2.235       .  S
In214       O217   2.247       .  S
In214       O225   2.237       .  S
In214       O219   2.290       .  S
In214       O221   2.271       .  S
In214       O222   2.238       .  S
In214       O223   2.225       .  S
In214       O226   2.273       .  S
C215        O221   1.265       .  A
C215        O223   1.259       .  A
C215        C416   1.482       .  S
O216        C224   1.256       .  A
O217        C224   1.258       .  A
C218        O225   1.254       .  A
C218        O219   1.265       .  A
C218        C496   1.488       .  S
C220        O222   1.258       .  A
C220        O226   1.264       .  A
C220        C386   1.484       .  S
C224        C376   1.470       .  S
In227       O229   2.234       .  S
In227       O230   2.252       .  S
In227       O238   2.256       .  S
In227       O232   2.272       .  S
In227       O234   2.273       .  S
In227       O235   2.206       .  S
In227       O236   2.245       .  S
In227       O239   2.270       .  S
C228        O234   1.260       .  A
C228        O236   1.257       .  A
C228        C366   1.479       .  S
O229        C237   1.258       .  A
O230        C237   1.259       .  A
C231        O238   1.256       .  A
C231        O232   1.261       .  A
C231        C439   1.487       .  S
C233        O235   1.261       .  A
C233        O239   1.267       .  A
C233        C356   1.476       .  S
C237        C399   1.472       .  S
In240       O242   2.234       .  S
In240       O243   2.283       .  S
In240       O251   2.227       .  S
In240       O245   2.264       .  S
In240       O247   2.231       .  S
In240       O248   2.245       .  S
In240       O249   2.247       .  S
In240       O252   2.253       .  S
C241        O247   1.257       .  A
C241        O249   1.259       .  A
C241        C379   1.471       .  S
O242        C250   1.255       .  A
O243        C250   1.265       .  A
C244        O251   1.259       .  A
C244        O245   1.264       .  A
C244        C346   1.478       .  S
C246        O248   1.259       .  A
C246        O252   1.262       .  A
C246        C369   1.481       .  S
C250        C429   1.487       .  S
In253       O255   2.240       .  S
In253       O256   2.231       .  S
In253       O264   2.304       .  S
In253       O258   2.223       .  S
In253       O260   2.273       .  S
In253       O261   2.298       .  S
In253       O262   2.235       .  S
In253       O265   2.214       .  S
C254        O260   1.264       .  A
C254        O262   1.260       .  A
C254        C336   1.484       .  S
O255        C263   1.261       .  A
O256        C263   1.261       .  A
C257        O264   1.267       .  A
C257        O258   1.252       .  A
C257        C549   1.488       .  S
C259        O261   1.265       .  A
C259        O265   1.256       .  A
C259        C409   1.483       .  S
C263        C329   1.472       .  S
In266       O268   2.216       .  S
In266       O269   2.294       .  S
In266       O277   2.249       .  S
In266       O271   2.268       .  S
In266       O273   2.239       .  S
In266       O274   2.280       .  S
In266       O275   2.232       .  S
In266       O278   2.220       .  S
C267        O273   1.259       .  A
C267        O275   1.258       .  A
C267        C316   1.470       .  S
O268        C276   1.255       .  A
O269        C276   1.267       .  A
C270        O277   1.259       .  A
C270        O271   1.262       .  A
C270        C389   1.481       .  S
C272        O274   1.267       .  A
C272        O278   1.258       .  A
C272        C339   1.481       .  S
C276        C539   1.487       .  S
In279       O281   2.220       .  S
In279       O282   2.294       .  S
In279       O290   2.271       .  S
In279       O284   2.223       .  S
In279       O286   2.235       .  S
In279       O287   2.265       .  S
In279       O288   2.245       .  S
In279       O291   2.225       .  S
C280        O286   1.260       .  A
C280        O288   1.261       .  A
C280        C326   1.473       .  S
O281        C289   1.252       .  A
O282        C289   1.265       .  A
C283        O290   1.263       .  A
C283        O284   1.259       .  A
C283        C359   1.482       .  S
C285        O287   1.264       .  A
C285        O291   1.258       .  A
C285        C309   1.475       .  S
C289        C479   1.484       .  S
In292       O294   2.240       .  S
In292       O295   2.243       .  S
In292       O303   2.236       .  S
In292       O297   2.271       .  S
In292       O299   2.266       .  S
In292       O300   2.211       .  S
In292       O301   2.234       .  S
In292       O304   2.258       .  S
C293        O299   1.262       .  A
C293        O301   1.257       .  A
C293        C306   1.479       .  S
O294        C302   1.256       .  A
O295        C302   1.256       .  A
C296        O303   1.257       .  A
C296        O297   1.265       .  A
C296        C466   1.481       .  S
C298        O300   1.261       .  A
C298        O304   1.267       .  A
C298        C349   1.476       .  S
C302        C319   1.471       .  S
C305        C306   1.405       .  A
C305        C310   1.396       .  A
C305        H312   1.083       .  S
C306        C307   1.408       .  A
C307        C308   1.401       .  A
C307        F314   1.357       .  S
C308        C309   1.404       .  A
C308        H313   1.083       .  S
C309        C310   1.405       .  A
C310        F311   1.358       .  S
C315        C316   1.403       .  A
C315        C320   1.394   1_455  A
C315        H322   1.083       .  S
C316        C317   1.407       .  A
C317        C318   1.394   1_455  A
C317        F324   1.358       .  S
C318        C319   1.403       .  A
C318        H323   1.083       .  S
C319        C320   1.407       .  A
C320        F321   1.357       .  S
C325        C326   1.404       .  A
C325        C330   1.394   1_655  A
C325        H332   1.083       .  S
C326        C327   1.406       .  A
C327        C328   1.397   1_655  A
C327        F334   1.357       .  S
C328        C329   1.404       .  A
C328        H333   1.083       .  S
C329        C330   1.406       .  A
C330        F331   1.358       .  S
C335        C336   1.407       .  A
C335        C340   1.405       .  A
C335        H342   1.083       .  S
C336        C337   1.407       .  A
C337        C338   1.398       .  A
C337        F344   1.358       .  S
C338        C339   1.404       .  A
C338        H343   1.084       .  S
C339        C340   1.407       .  A
C340        F341   1.357       .  S
C345        C346   1.406       .  A
C345        C350   1.402       .  A
C345        H352   1.083       .  S
C346        C347   1.406       .  A
C347        C348   1.396       .  A
C347        F354   1.358       .  S
C348        C349   1.403       .  A
C348        H353   1.084       .  S
C349        C350   1.407       .  A
C350        F351   1.358       .  S
C355        C356   1.405       .  A
C355        C360   1.406       .  A
C355        H362   1.083       .  S
C356        C357   1.404       .  A
C357        C358   1.393       .  A
C357        F364   1.358       .  S
C358        C359   1.404       .  A
C358        H363   1.083       .  S
C359        C360   1.411       .  A
C360        F361   1.357       .  S
C365        C366   1.404       .  A
C365        C370   1.399       .  A
C365        H372   1.083       .  S
C366        C367   1.407       .  A
C367        C368   1.401       .  A
C367        F374   1.358       .  S
C368        C369   1.406       .  A
C368        H373   1.083       .  S
C369        C370   1.407       .  A
C370        F371   1.357       .  S
C375        C376   1.402   1_655  A
C375        C380   1.393       .  A
C375        H382   1.083   1_655  S
C376        C377   1.407   1_455  A
C377        C378   1.396       .  A
C377        F384   1.358   1_655  S
C378        C379   1.404       .  A
C378        H383   1.083       .  S
C379        C380   1.407       .  A
C380        F381   1.357       .  S
C385        C386   1.406       .  A
C385        C390   1.403       .  A
C385        H392   1.083       .  S
C386        C387   1.409       .  A
C387        C388   1.400       .  A
C387        F394   1.358       .  S
C388        C389   1.403       .  A
C388        H393   1.083       .  S
C389        C390   1.408       .  A
C390        F391   1.357       .  S
C395        C396   1.404   1_655  A
C395        C400   1.393       .  A
C395        H402   1.083   1_655  S
C396        C397   1.407   1_455  A
C397        C398   1.399       .  A
C397        F404   1.357   1_655  S
C398        C399   1.405       .  A
C398        H403   1.083       .  S
C399        C400   1.405       .  A
C400        F401   1.358       .  S
C405        C406   1.408       .  A
C405        C410   1.409       .  A
C405        H412   1.083       .  S
C406        C407   1.404       .  A
C407        C408   1.392       .  A
C407        F414   1.358       .  S
C408        C409   1.404       .  A
C408        H413   1.083       .  S
C409        C410   1.410       .  A
C410        F411   1.357       .  S
C415        C416   1.406       .  A
C415        C420   1.405       .  A
C415        H422   1.083       .  S
C416        C417   1.407       .  A
C417        C418   1.397       .  A
C417        F424   1.358       .  S
C418        C419   1.404       .  A
C418        H423   1.083       .  S
C419        C420   1.409       .  A
C420        F421   1.357       .  S
C425        C426   1.401       .  A
C425        C430   1.400       .  A
C425        H432   1.083       .  S
C426        C427   1.412       .  A
C427        C428   1.402       .  A
C427        F434   1.357       .  S
C428        C429   1.403       .  A
C428        H433   1.083       .  S
C429        C430   1.413       .  A
C430        F431   1.357       .  S
C435        C436   1.407       .  A
C435        C440   1.400       .  A
C435        H442   1.083       .  S
C436        C437   1.407       .  A
C437        C438   1.403       .  A
C437        F444   1.357       .  S
C438        C439   1.408       .  A
C438        H443   1.083       .  S
C439        C440   1.407       .  A
C440        F441   1.357       .  S
C445        C446   1.411       .  A
C445        C450   1.410       .  A
C445        H452   1.078       .  S
C446        C447   1.409       .  A
C447        C448   1.390       .  A
C447        F454   1.359       .  S
C448        C449   1.409       .  A
C448        H453   1.084       .  S
C449        C450   1.415       .  A
C450        F451   1.353   1_556  S
C455        C456   1.409   1_554  A
C455        C460   1.408       .  A
C455        H462   1.083       .  S
C456        C457   1.410       .  A
C457        C458   1.407       .  A
C457        F464   1.357       .  S
C458        C459   1.406   1_565  A
C458        H463   1.079   1_565  S
C459        C460   1.410   1_546  A
C460        F461   1.357   1_565  S
C465        C466   1.402       .  A
C465        C470   1.400       .  A
C465        H472   1.083       .  S
C466        C467   1.408       .  A
C467        C468   1.403       .  A
C467        F474   1.358       .  S
C468        C469   1.405       .  A
C468        H473   1.083       .  S
C469        C470   1.412       .  A
C470        F471   1.357       .  S
C475        C476   1.398       .  A
C475        C480   1.397       .  A
C475        H482   1.084       .  S
C476        C477   1.411       .  A
C477        C478   1.403       .  A
C477        F484   1.357       .  S
C478        C479   1.403       .  A
C478        H483   1.083       .  S
C479        C480   1.413       .  A
C480        F481   1.358       .  S
C485        C486   1.413       .  A
C485        C490   1.416       .  A
C485        H492   1.080       .  S
C486        C487   1.409       .  A
C487        C488   1.387       .  A
C487        F494   1.359       .  S
C488        C489   1.408       .  A
C488        H493   1.084       .  S
C489        C490   1.416       .  A
C490        F491   1.353       .  S
C495        C496   1.410       .  A
C495        C500   1.400       .  A
C495        H502   1.083       .  S
C496        C497   1.406       .  A
C497        C498   1.403       .  A
C497        F504   1.357       .  S
C498        C499   1.409       .  A
C498        H503   1.083       .  S
C499        C500   1.403       .  A
C500        F501   1.358       .  S
C505        C506   1.401       .  A
C505        C510   1.402       .  A
C505        H512   1.083       .  S
C506        C507   1.409       .  A
C507        C508   1.396       .  A
C507        F514   1.358       .  S
C508        C509   1.402       .  A
C508        H513   1.073       .  S
C509        C510   1.417       .  A
C510        F511   1.357       .  S
C515        C516   1.408   1_656  A
C515        C520   1.405       .  A
C515        H522   1.083   1_655  S
C516        C517   1.408   1_455  A
C517        C518   1.404       .  A
C517        F524   1.351   1_655  S
C518        C519   1.405   1_554  A
C518        H523   1.083       .  S
C519        C520   1.411       .  A
C520        F521   1.357       .  S
C525        C526   1.409       .  A
C525        C530   1.412       .  A
C525        H532   1.080       .  S
C526        C527   1.411       .  A
C527        C528   1.387       .  A
C527        F534   1.359       .  S
C528        C529   1.407       .  A
C528        H533   1.084       .  S
C529        C530   1.418       .  A
C530        F531   1.352       .  S
C535        C536   1.418       .  A
C535        C540   1.405       .  A
C535        H542   1.081       .  S
C536        C537   1.409       .  A
C537        C538   1.397       .  A
C537        F544   1.351       .  S
C538        C539   1.406       .  A
C538        H543   1.083       .  S
C539        C540   1.403       .  A
C540        F541   1.357       .  S
C545        C546   1.412       .  A
C545        C550   1.404       .  A
C545        H552   1.083       .  S
C546        C547   1.404       .  A
C547        C548   1.399       .  A
C547        F554   1.357       .  S
C548        C549   1.410       .  A
C548        H553   1.083       .  S
C549        C550   1.405       .  A
C550        F551   1.357       .  S
C555        C556   1.407       .  A
C555        C560   1.407   1_655  A
C555        H562   1.083       .  S
C556        C557   1.411   1_554  A
C557        C558   1.409       .  A
C557        F564   1.357       .  S
C558        C559   1.407   1_656  A
C558        H563   1.077   1_655  S
C559        C560   1.413       .  A
C560        F561   1.357       .  S
C565        C566   1.406       .  A
C565        C570   1.407       .  A
C565        H572   1.083       .  S
C566        C567   1.412   1_556  A
C567        C568   1.406       .  A
C567        F574   1.357       .  S
C568        C569   1.408   1_564  A
C568        H573   1.083   1_565  S
C569        C570   1.412   1_545  A
C570        F571   1.357   1_565  S
C575        C576   1.408       .  A
C575        C580   1.390       .  A
C575        H582   1.084       .  S
C576        C577   1.416       .  A
C577        C578   1.411       .  A
C577        F584   1.352       .  S
C578        C579   1.411       .  A
C578        H583   1.078       .  S
C579        C580   1.410       .  A
C580        F581   1.359       .  S
C585        C586   1.407       .  A
C585        C590   1.403       .  A
C585        H592   1.083       .  S
C586        C587   1.407       .  A
C587        C588   1.398       .  A
C587        F594   1.357       .  S
C588        C589   1.408       .  A
C588        H593   1.083       .  S
C589        C590   1.409       .  A
C590        F591   1.356       .  S
C595        C596   1.405       .  A
C595        C600   1.401       .  A
C595        H602   1.083       .  S
C596        C597   1.406       .  A
C597        C598   1.398       .  A
C597        F604   1.358       .  S
C598        C599   1.405       .  A
C598        H603   1.083       .  S
C599        C600   1.407       .  A
C600        F601   1.357       .  S
C605        C606   1.410       .  A
C605        C610   1.399       .  A
C605        H612   1.083       .  S
C606        C607   1.405       .  A
C607        C608   1.401       .  A
C607        F614   1.357       .  S
C608        C609   1.409       .  A
C608        H613   1.083       .  S
C609        C610   1.402       .  A
C610        F611   1.357       .  S
C615        C616   1.402   1_565  A
C615        C620   1.388       .  A
C615        H622   1.083   1_565  S
C616        C617   1.407   1_545  A
C617        C618   1.398       .  A
C617        F624   1.357   1_565  S
C618        C619   1.405       .  A
C618        H623   1.083       .  S
C619        C620   1.405       .  A
C620        F621   1.358       .  S
C625        C626   1.406       .  A
C625        C630   1.398       .  A
C625        H632   1.083       .  S
C626        C627   1.407       .  A
C627        C628   1.400       .  A
C627        F634   1.358       .  S
C628        C629   1.407       .  A
C628        H633   1.083       .  S
C629        C630   1.406       .  A
C630        F631   1.356       .  S
C635        C636   1.404   1_565  A
C635        C640   1.397       .  A
C635        H642   1.083   1_565  S
C636        C637   1.407   1_545  A
C637        C638   1.394       .  A
C637        F644   1.358   1_565  S
C638        C639   1.403       .  A
C638        H643   1.083       .  S
C639        C640   1.407       .  A
C640        F641   1.357       .  S
C645        C646   1.403       .  A
C645        C650   1.398       .  A
C645        H652   1.083       .  S
C646        C647   1.407       .  A
C647        C648   1.399       .  A
C647        F654   1.358       .  S
C648        C649   1.404       .  A
C648        H653   1.083       .  S
C649        C650   1.407       .  A
C650        F651   1.358       .  S
C655        C656   1.410       .  A
C655        C660   1.400       .  A
C655        H662   1.083       .  S
C656        C657   1.404       .  A
C657        C658   1.400       .  A
C657        F664   1.357       .  S
C658        C659   1.409       .  A
C658        H663   1.083       .  S
C659        C660   1.404       .  A
C660        F661   1.357       .  S
C665        C666   1.406       .  A
C665        C670   1.406       .  A
C665        H672   1.083       .  S
C666        C667   1.407       .  A
C667        C668   1.393       .  A
C667        F674   1.358       .  S
C668        C669   1.403       .  A
C668        H673   1.083       .  S
C669        C670   1.409       .  A
C670        F671   1.357       .  S
C675        C676   1.405       .  A
C675        C680   1.399       .  A
C675        H682   1.083       .  S
C676        C677   1.409       .  A
C677        C678   1.400       .  A
C677        F684   1.358       .  S
C678        C679   1.406       .  A
C678        H683   1.083       .  S
C679        C680   1.406       .  A
C680        F681   1.356       .  S
C685        C686   1.403       .  A
C685        C690   1.394       .  A
C685        H692   1.083       .  S
C686        C687   1.408       .  A
C687        C688   1.405       .  A
C687        F694   1.357       .  S
C688        C689   1.407       .  A
C688        H693   1.083       .  S
C689        C690   1.407       .  A
C690        F691   1.358       .  S
C695        C696   1.405       .  A
C695        C700   1.395       .  A
C695        H702   1.083       .  S
C696        C697   1.408       .  A
C697        C698   1.402       .  A
C697        F704   1.357       .  S
C698        C699   1.405       .  A
C698        H703   1.083       .  S
C699        C700   1.404       .  A
C700        F701   1.358       .  S
C705        C706   1.400       .  A
C705        C710   1.397       .  A
C705        H712   1.083       .  S
C706        C707   1.414       .  A
C707        C708   1.402       .  A
C707        F714   1.357       .  S
C708        C709   1.402       .  A
C708        H713   1.083       .  S
C709        C710   1.412       .  A
C710        F711   1.357       .  S
C715        C716   1.403       .  A
C715        C720   1.393       .  A
C715        H722   1.083       .  S
C716        C717   1.408       .  A
C717        C718   1.405       .  A
C717        F724   1.357       .  S
C718        C719   1.406       .  A
C718        H723   1.083       .  S
C719        C720   1.406       .  A
C720        F721   1.358       .  S
C725        C726   1.403   1_565  A
C725        C730   1.392       .  A
C725        H732   1.083   1_565  S
C726        C727   1.405   1_545  A
C727        C728   1.396       .  A
C727        F734   1.357   1_565  S
C728        C729   1.404       .  A
C728        H733   1.083       .  S
C729        C730   1.405       .  A
C730        F731   1.358       .  S
C735        C736   1.398       .  A
C735        C740   1.396       .  A
C735        H742   1.079       .  S
C736        C737   1.414       .  A
C737        C738   1.402       .  A
C737        F744   1.357       .  S
C738        C739   1.402       .  A
C738        H743   1.083       .  S
C739        C740   1.412       .  A
C740        F741   1.358       .  S
C745        C746   1.403       .  A
C745        C750   1.392       .  A
C745        H752   1.083       .  S
C746        C747   1.410       .  A
C747        C748   1.406       .  A
C747        F754   1.357       .  S
C748        C749   1.406       .  A
C748        H753   1.083       .  S
C749        C750   1.406       .  A
C750        F751   1.358       .  S
C755        C756   1.405       .  A
C755        C760   1.396   1_565  A
C755        H762   1.083       .  S
C756        C757   1.407       .  A
C757        C758   1.396   1_565  A
C757        F764   1.357       .  S
C758        C759   1.402       .  A
C758        H763   1.084       .  S
C759        C760   1.405       .  A
C760        F761   1.358       .  S
C765        C766   1.404       .  A
C765        C770   1.398       .  A
C765        H772   1.083       .  S
C766        C767   1.409       .  A
C767        C768   1.402       .  A
C767        F774   1.357       .  S
C768        C769   1.405       .  A
C768        H773   1.083       .  S
C769        C770   1.408       .  A
C770        F771   1.358       .  S
C775        C776   1.402       .  A
C775        C780   1.400       .  A
C775        H782   1.084       .  S
C776        C777   1.410       .  A
C777        C778   1.402       .  A
C777        F784   1.358       .  S
C778        C779   1.405       .  A
C778        H783   1.083       .  S
C779        C780   1.413       .  A
C780        F781   1.357       .  S
