geometry optimzed in LAMMPS
_audit_creation_date              2020-11-30 
_audit_creation_method            'lammps2cif' 
_symmetry_space_group_name_H-M    'P1' 
_symmetry_Int_Tables_number       1 
_symmetry_cell_setting            triclinic 
loop_ 
_symmetry_equiv_pos_as_xyz 
  x,y,z 
_cell_length_a                    67.55801056 
_cell_length_b                    67.6296178301499 
_cell_length_c                    67.86113379808165 
_cell_angle_alpha                 89.85190987151 
_cell_angle_beta                  90.0580215544105 
_cell_angle_gamma                 89.99987936726087 
loop_ 
_atom_site_label 
_atom_site_type_symbol 
_atom_site_fract_x 
_atom_site_fract_y 
_atom_site_fract_z 
_atom_site_charge 
O1          O  0.28442567  0.74309951  0.48353970    -0.78000
C2          C  0.28911916  0.70674682  0.53567808     0.83100
O3          O  0.26612723  0.67145689  0.47536664    -0.79100
O4          O  0.22564753  0.69470327  0.53413660    -0.80600
O5          O  0.22157675  0.75170535  0.50199238    -0.80400
O6          O  0.25629360  0.75153568  0.46837240    -0.79000
Zn7        Zn  0.27841393  0.71552160  0.49306796     1.55700
O8          O  0.23355073  0.74278217  0.53145501    -0.80400
Cd9        Cd  0.23597271  0.73297985  0.48225017     1.59700
Cd10       Cd  0.24253148  0.68543299  0.48909735     1.59600
O11         O  0.21608052  0.71973932  0.46229793    -0.80400
O12         O  0.25067871  0.71241790  0.49725384    -1.90900
Cd13       Cd  0.24595401  0.71555605  0.52579479     1.59900
O14         O  0.22068915  0.68743903  0.46769300    -0.80300
O15         O  0.27172518  0.71030469  0.54206077    -0.79000
C16         C  0.28218611  0.67884913  0.46871959     0.83600
C17         C  0.27444098  0.75478517  0.47259747     0.83200
O18         O  0.29344981  0.70833290  0.51752010    -0.77900
C19         C  0.22350070  0.75442971  0.52052599     0.84000
O20         O  0.28778950  0.69626177  0.47304203    -0.78000
C21         C  0.21206040  0.70159279  0.45867456     0.84200
C22         C  0.22269049  0.67700114  0.52856683     0.84500
O23         O  0.23047113  0.66988675  0.51295598    -0.80400
O24         O  0.79295827  0.70951939  0.97568832    -0.78000
C25         C  0.77047624  0.75558741  0.01940632     0.83100
O26         O  0.76458911  0.67004387  0.01383707    -0.79100
O27         O  0.71401901  0.71844678  0.02953680    -0.80600
O28         O  0.73086138  0.74307096  0.95982886    -0.80400
O29         O  0.77296543  0.71450361  0.95016430    -0.79000
Zn30       Zn  0.77623906  0.71559762  0.99961774     1.55700
O31         O  0.71719110  0.74985184  0.98910611    -0.80400
Cd32       Cd  0.74590894  0.71675394  0.96503623     1.59700
Cd33       Cd  0.74040857  0.68507549  0.00137578     1.59600
O34         O  0.72912749  0.69419378  0.95357412    -0.80400
O35         O  0.74869222  0.71239563  0.99395148    -1.90900
Cd36       Cd  0.73294445  0.73239505  0.00900507     1.59900
O37         O  0.72701041  0.67108195  0.97711956    -0.80300
O38         O  0.75204487  0.75265175  0.02242000    -0.79000
C39         C  0.78020519  0.67737708  0.02162825     0.83600
C40         C  0.78984135  0.70978950  0.95719706     0.83200
O41         O  0.78112865  0.74318589  0.01001109    -0.77900
C42         C  0.71938143  0.75335029  0.97071899     0.84000
O43         O  0.78502585  0.69541589  0.01918212    -0.78000
C44         C  0.72336022  0.67732179  0.95966186     0.84200
C45         C  0.71066832  0.70013397  0.03306969     0.84500
O46         O  0.71940655  0.68641034  0.02359315    -0.80400
O47         O  0.20138654  0.52859774  0.20711226    -0.78000
C48         C  0.24568627  0.48242601  0.22770804     0.83100
O49         O  0.16212408  0.48729975  0.23633471    -0.79100
O50         O  0.21062053  0.47503183  0.28570008    -0.80600
O51         O  0.23626893  0.54279237  0.26603512    -0.80400
O52         O  0.20359780  0.55367450  0.22817583    -0.79000
Zn53       Zn  0.20690051  0.50417949  0.22289343     1.55700
O54         O  0.24296213  0.51344391  0.27976942    -0.80400
Cd55       Cd  0.20820621  0.53807595  0.25443150     1.59700
Cd56       Cd  0.17669560  0.50232777  0.25897789     1.59600
O57         O  0.18730831  0.54777833  0.27446106    -0.80400
O58         O  0.20391009  0.50942902  0.25035638    -1.90900
Cd59       Cd  0.22402689  0.49408337  0.26539833     1.59900
O60         O  0.16178683  0.52723825  0.26974182    -0.80300
O61         O  0.24251483  0.47916260  0.24596951    -0.79000
C62         C  0.16903715  0.48067278  0.22011626     0.83600
C63         C  0.20031917  0.54696720  0.21091887     0.83200
O64         O  0.23407497  0.49307318  0.21730745    -0.77900
C65         C  0.24704367  0.53164095  0.27682568     0.84000
O66         O  0.18634536  0.48500585  0.21411734    -0.78000
C67         C  0.16930191  0.54283507  0.27729033     0.84200
C68         C  0.19250147  0.47298583  0.29071784     0.84500
O69         O  0.17859111  0.48258407  0.28231127    -0.80400
O70         O  0.52094448  0.21258556  0.20432630    -0.78000
C71         C  0.47671064  0.23292198  0.24962853     0.83100
O72         O  0.47972942  0.24046317  0.16516222    -0.79100
O73         O  0.46663293  0.29084209  0.21387730    -0.80600
O74         O  0.53554860  0.27286014  0.23768811    -0.80400
O75         O  0.54608213  0.23362484  0.20714426    -0.79000
Zn76       Zn  0.49621200  0.22800489  0.20967650     1.55700
O77         O  0.50629326  0.28598816  0.24570025    -0.80400
Cd78       Cd  0.53013763  0.25986364  0.21071684     1.59700
Cd79       Cd  0.49366221  0.26387670  0.17979679     1.59600
O80         O  0.53970598  0.27920214  0.18938302    -0.80400
O81         O  0.50131745  0.25569503  0.20692305    -1.90900
Cd82       Cd  0.48656544  0.27103228  0.22738663     1.59900
O83         O  0.51803996  0.27562232  0.16471076    -0.80300
O84         O  0.47334736  0.25133719  0.24705268    -0.79000
C85         C  0.47310906  0.22405456  0.17184508     0.83600
C86         C  0.53937649  0.21633775  0.20372261     0.83200
O87         O  0.48610008  0.22260643  0.23700337    -0.77900
C88         C  0.52475870  0.28348859  0.24886472     0.84000
O89         O  0.47686748  0.21825161  0.18932843    -0.78000
C90         C  0.53413276  0.28260718  0.17176694     0.84200
C91         C  0.46383285  0.29523146  0.19570753     0.84500
O92         O  0.47308157  0.28650804  0.18183630    -0.80400
O93         O  0.28939516  0.20277804  0.47888408    -0.78000
C94         C  0.27012624  0.24582444  0.52618532     0.83100
O95         O  0.25967297  0.16261218  0.51954076    -0.79100
O96         O  0.21137456  0.21271248  0.53335598    -0.80600
O97         O  0.23043061  0.23878021  0.46537743    -0.80400
O98         O  0.26842883  0.20651595  0.45384898    -0.79000
Zn99       Zn  0.27372618  0.20762779  0.50347774     1.55700
O100        O  0.21785857  0.24599609  0.49498132    -0.80400
Cd101      Cd  0.24196199  0.21053712  0.46963169     1.59700
Cd102      Cd  0.23690891  0.17843407  0.50549389     1.59600
O103        O  0.22166254  0.18996314  0.45946144    -0.80400
O104        O  0.24601918  0.20555592  0.49828646    -1.90900
Cd105      Cd  0.23157897  0.22589195  0.51396870     1.59900
O106        O  0.22462662  0.16468546  0.48069644    -0.80300
O107        O  0.25170994  0.24319141  0.52938285    -0.79000
C108        C  0.27604126  0.16923626  0.52632628     0.83600
C109        C  0.28572349  0.20275546  0.46049822     0.83200
O110        O  0.28011618  0.23419363  0.51527685    -0.77900
C111        C  0.22044484  0.25001998  0.47674582     0.84000
O112        O  0.28219492  0.18653318  0.52222444    -0.78000
C113        C  0.21788159  0.17223720  0.46473631     0.84200
C114        C  0.20659234  0.19462082  0.53607914     0.84500
O115        O  0.21461867  0.18059301  0.52641263    -0.80400
O116        O  0.73338315  0.52293849  0.21287432    -0.78000
C117        C  0.69877948  0.46957640  0.20975443     0.83100
O118        O  0.66193712  0.53121998  0.23243631    -0.79100
O119        O  0.68596500  0.47209213  0.27282100    -0.80600
O120        O  0.74381090  0.50443901  0.27687149    -0.80400
O121        O  0.74387209  0.53708911  0.24070242    -0.79000
Zn122      Zn  0.70603639  0.51307246  0.21951018     1.55700
O123        O  0.73432178  0.47470304  0.26613871    -0.80400
Cd124      Cd  0.72526806  0.52387788  0.26144818     1.59700
Cd125      Cd  0.67692893  0.51738237  0.25569867     1.59600
O126        O  0.71264453  0.54430513  0.28093463    -0.80400
O127        O  0.70394350  0.50893107  0.24736091    -1.90900
Cd128      Cd  0.70722352  0.48028775  0.25277160     1.59900
O129        O  0.68021651  0.53892714  0.27685565    -0.80300
O130        O  0.70252968  0.46355865  0.22722033    -0.79000
C131        C  0.66870845  0.53757707  0.21601192     0.83600
C132        C  0.74599462  0.53320876  0.22240815     0.83200
O133        O  0.69965457  0.48782597  0.20516317    -0.77900
C134        C  0.74611389  0.48571287  0.27592547     0.84000
O135        O  0.68596264  0.53298041  0.21002650    -0.78000
C136        C  0.69454986  0.54790178  0.28516057     0.84200
C137        C  0.66855476  0.47812795  0.27670528     0.84500
O138        O  0.66147170  0.49404769  0.26931181    -0.80400
O139        O  0.01600531  0.29432097  0.26679499    -0.78000
C140        C  0.96100281  0.29806139  0.29941737     0.83100
O141        O  0.02045561  0.27239934  0.33763854    -0.79100
O142        O  0.96115660  0.23413215  0.31062948    -0.80600
O143        O  0.99597130  0.23235075  0.25429133    -0.80400
O144        O  0.03025320  0.26621946  0.25703955    -0.79000
Zn145      Zn  0.00426040  0.28734790  0.29328506     1.55700
O146        O  0.96623302  0.24417987  0.26261623    -0.80400
Cd147      Cd  0.01514844  0.24562490  0.27417882     1.59700
Cd148      Cd  0.00692513  0.24979480  0.32165871     1.59600
O149        O  0.03421920  0.22464516  0.28656792    -0.80400
O150        O  0.99958093  0.25949102  0.29495978    -1.90900
Cd151      Cd  0.97092688  0.25497975  0.29062940     1.59900
O152        O  0.02822876  0.22812490  0.31875930    -0.80300
O153        O  0.95473719  0.28071524  0.29555945    -0.79000
C154        C  0.02666094  0.28923510  0.33168910     0.83600
C155        C  0.02681377  0.28464409  0.25478624     0.83200
O156        O  0.97930675  0.30238784  0.29876034    -0.77900
C157        C  0.97752908  0.23468341  0.25093913     0.84000
O158        O  0.02257183  0.29593617  0.31463446    -0.78000
C159        C  0.03734249  0.21988767  0.30454385     0.84200
C160        C  0.96664675  0.22970285  0.32807296     0.84500
O161        O  0.98265012  0.23641473  0.33559885    -0.80400
O162        O  0.80262578  0.02829882  0.29390586    -0.78000
C163        C  0.75587459  0.98296199  0.27628466     0.83100
O164        O  0.83736877  0.98247558  0.26327461    -0.79100
O165        O  0.78823190  0.97229063  0.21594008    -0.80600
O166        O  0.76710334  0.04196242  0.23261774    -0.80400
O167        O  0.79819758  0.05320429  0.27293151    -0.79000
Zn168      Zn  0.79531588  0.00376882  0.27865863     1.55700
O169        O  0.75795376  0.01202123  0.22185807    -0.80400
Cd170      Cd  0.79405298  0.03690693  0.24659483     1.59700
Cd171      Cd  0.82368199  0.99929668  0.24132302     1.59600
O172        O  0.81600351  0.04593357  0.22738010    -0.80400
O173        O  0.79724148  0.00795261  0.25076973    -1.90900
Cd174      Cd  0.77624248  0.99232612  0.23680080     1.59900
O175        O  0.84007828  0.02344155  0.23074028    -0.80300
O176        O  0.75803634  0.97891495  0.25799774    -0.79000
C177        C  0.83078234  0.97671564  0.27997821     0.83600
C178        C  0.80287504  0.04672525  0.29003909     0.83200
O179        O  0.76808653  0.99391150  0.28557416    -0.77900
C180        C  0.75558532  0.03073109  0.22270012     0.84000
O181        O  0.81460013  0.98314559  0.28704751    -0.78000
C182        C  0.83353383  0.03985549  0.22397105     0.84200
C183        C  0.80608170  0.97052215  0.20984882     0.84500
O184        O  0.82022679  0.98024893  0.21766100    -0.80400
O185        O  0.71490881  0.76946500  0.48502478    -0.78000
C186        C  0.71072954  0.80339264  0.53886801     0.83100
O187        O  0.73420840  0.84117142  0.48120290    -0.79100
O188        O  0.77409185  0.81280805  0.53799263    -0.80600
O189        O  0.77870949  0.75927761  0.50333317    -0.80400
O190        O  0.74321199  0.75996380  0.47077154    -0.79000
Zn191      Zn  0.72101605  0.79647953  0.49570782     1.55700
O192        O  0.76427467  0.76491008  0.53239920    -0.80400
Cd193      Cd  0.76361080  0.77833902  0.48454968     1.59700
Cd194      Cd  0.75741228  0.82531700  0.49346906     1.59600
O195        O  0.78362873  0.79208220  0.46528609    -0.80400
O196        O  0.74875070  0.79825795  0.50013616    -1.90900
Cd197      Cd  0.75319926  0.79305659  0.52839551     1.59900
O198        O  0.77910609  0.82403169  0.47227332    -0.80300
O199        O  0.72785724  0.79838171  0.54496717    -0.79000
C200        C  0.71801284  0.83478096  0.47391123     0.83600
C201        C  0.72488286  0.75733333  0.47460621     0.83200
O202        O  0.70624823  0.80306936  0.52065002    -0.77900
C203        C  0.77549170  0.75466314  0.52129399     0.84000
O204        O  0.71208010  0.81713502  0.47664934    -0.78000
C205        C  0.78784711  0.81035500  0.46279651     0.84200
C206        C  0.77791309  0.83056654  0.53299989     0.84500
O207        O  0.77053701  0.83862881  0.51763360    -0.80400
C208        C  0.91755570  0.84488541  0.35226595     0.87000
C209        C  0.92876304  0.85714078  0.36769801    -0.53200
C210        C  0.91717254  0.87060829  0.37726680     0.10000
C211        C  0.89532044  0.87028281  0.37077917     0.20900
C212        C  0.90048893  0.83528033  0.36372993    -0.53900
C213        C  0.88879067  0.84850646  0.37363349     0.10100
C214        C  0.90754197  0.86009313  0.33880727    -0.53500
C215        C  0.89595593  0.87352377  0.34830752     0.10600
H216        H  0.94457667  0.85579896  0.37026293     0.15100
H217        H  0.88622389  0.88125195  0.37874857     0.00900
H218        H  0.89815310  0.81945689  0.36430958     0.15400
H219        H  0.90969378  0.86011656  0.32296355     0.15200
C220        C  0.84396051  0.15528942  0.41969590     0.87000
C221        C  0.83401302  0.14455622  0.40222559    -0.53200
C222        C  0.84659510  0.13286970  0.39163640     0.10000
C223        C  0.86804612  0.13326849  0.39924607     0.20900
C224        C  0.85379626  0.13868915  0.43178675    -0.53900
C225        C  0.86662131  0.12717585  0.42114210     0.10100
C226        C  0.86128212  0.16669049  0.41062730    -0.53500
C227        C  0.87381375  0.15527477  0.39985398     0.10600
H228        H  0.81832217  0.14540305  0.39893154     0.15100
H229        H  0.87836676  0.12427073  0.39028435     0.00900
H230        H  0.85105130  0.13658795  0.44739933     0.15400
H231        H  0.86333558  0.18252614  0.41239061     0.15200
C232        C  0.85216230  0.92193094  0.65355233     0.87000
C233        C  0.86506059  0.90637254  0.66400824    -0.53200
C234        C  0.87706856  0.89589734  0.65157184     0.10000
C235        C  0.87506624  0.90231463  0.62977742     0.20900
C236        C  0.86693421  0.93502302  0.64223396    -0.53900
C237        C  0.87882813  0.92482240  0.62950598     0.10100
C238        C  0.84099781  0.91059303  0.63755428    -0.53500
C239        C  0.85298636  0.90037046  0.62520498     0.10600
H240        H  0.86436545  0.90378369  0.67976983     0.15100
H241        H  0.88425474  0.89388430  0.61927671     0.00900
H242        H  0.86769195  0.95093118  0.64384370     0.15400
H243        H  0.82498225  0.91075739  0.63600849     0.15200
C244        C  0.14193978  0.08526447  0.33847176     0.87000
C245        C  0.12575157  0.07318144  0.34895148    -0.53200
C246        C  0.11538895  0.08390659  0.36255160     0.10000
C247        C  0.12176157  0.10574593  0.36396008     0.20900
C248        C  0.13090081  0.10291835  0.32940093    -0.53900
C249        C  0.12029428  0.11376816  0.34266556     0.10100
C250        C  0.15448586  0.09402140  0.35512593    -0.53500
C251        C  0.14400977  0.10475211  0.36845299     0.10600
H252        H  0.12340550  0.05747068  0.34672293     0.15100
H253        H  0.11318556  0.11423111  0.37501474     0.00900
H254        H  0.13168217  0.10651884  0.31383605     0.15400
H255        H  0.17040830  0.09198695  0.35611853     0.15200
C256        C  0.07462164  0.16222444  0.64481392     0.87000
C257        C  0.09216380  0.17112113  0.63336671    -0.53200
C258        C  0.10319559  0.15747830  0.62329754     0.10000
C259        C  0.09547658  0.13603036  0.62581292     0.20900
C260        C  0.06274311  0.15074158  0.62927943    -0.53900
C261        C  0.07352256  0.13683122  0.61924636     0.10100
C262        C  0.08375259  0.14628490  0.65801013    -0.53500
C263        C  0.09462570  0.13248704  0.64827858     0.10600
H264        H  0.09526284  0.18682129  0.63292203     0.15100
H265        H  0.10435943  0.12473121  0.61809224     0.00900
H266        H  0.04709260  0.15331584  0.62678323     0.15400
H267        H  0.08172481  0.14605026  0.67388656     0.15200
C268        C  0.15777812  0.86230268  0.57954168     0.87000
C269        C  0.14740108  0.87831152  0.56699590    -0.53200
C270        C  0.13396577  0.88928301  0.57739600     0.10000
C271        C  0.13266875  0.88373625  0.59936047     0.20900
C272        C  0.16718924  0.87356559  0.59681010    -0.53900
C273        C  0.15408145  0.88489770  0.60716156     0.10100
C274        C  0.14082258  0.85048872  0.58874490    -0.53500
C275        C  0.12774509  0.86160975  0.59912410     0.10600
H276        H  0.14936011  0.88000050  0.55122246     0.15100
H277        H  0.12188116  0.89275524  0.60780841     0.00900
H278        H  0.18282191  0.87269186  0.60045998     0.15400
H279        H  0.13931612  0.83456767  0.58717215     0.15200
O280        O  0.01382785  0.01783518  0.45178726    -0.78000
C281        C  0.97806358  0.96436180  0.46129828     0.83100
O282        O  0.96071938  0.03707038  0.49674920    -0.79100
O283        O  0.97283611  0.97275733  0.52400873    -0.80600
O284        O  0.04217302  0.98649185  0.51018689    -0.80400
O285        O  0.03845032  0.02073486  0.47352414    -0.79000
Zn286      Zn  0.99025784  0.00766768  0.46790880     1.55700
O287        O  0.01930377  0.96299152  0.51396543    -0.80400
Cd288      Cd  0.02618503  0.01065146  0.49958573     1.59700
Cd289      Cd  0.98101284  0.02110189  0.51372252     1.59600
O290        O  0.02946820  0.03333887  0.51979510    -0.80400
O291        O  0.99758296  0.00397536  0.49561132    -1.90900
Cd292      Cd  0.99381450  0.97541240  0.50233358     1.59900
O293        O  0.99893700  0.04132782  0.52944140    -0.80300
O294        O  0.98400404  0.95894712  0.47831786    -0.79000
C295        C  0.95787155  0.03778091  0.47814828     0.83600
C296        C  0.03159546  0.02264699  0.45612148     0.83200
O297        O  0.97930582  0.98232386  0.45564516    -0.77900
C298        C  0.03701331  0.96920979  0.51574430     0.84000
O299        O  0.96823321  0.02767820  0.46614924    -0.78000
C300        C  0.01770719  0.04388515  0.53001916     0.84200
C301        C  0.96313875  0.98452378  0.53497350     0.84500
O302        O  0.96470704  0.00331502  0.53342351    -0.80400
O303        O  0.70690458  0.30764642  0.48213545    -0.78000
C304        C  0.72638144  0.26304561  0.52816543     0.83100
O305        O  0.73565517  0.34782130  0.52273290    -0.79100
O306        O  0.78467302  0.29880543  0.53728794    -0.80600
O307        O  0.76622275  0.27231075  0.46959820    -0.80400
O308        O  0.72850310  0.30508627  0.45755643    -0.79000
Zn309      Zn  0.72218460  0.30243517  0.50698204     1.55700
O310        O  0.78038772  0.26642157  0.49881526    -0.80400
Cd311      Cd  0.75438062  0.30032446  0.47386833     1.59700
Cd312      Cd  0.75853373  0.33235043  0.50910193     1.59600
O313        O  0.77505063  0.32070899  0.46466287    -0.80400
O314        O  0.74989075  0.30503442  0.50226537    -1.90900
Cd315      Cd  0.76483706  0.28496299  0.51785759     1.59900
O316        O  0.77098072  0.34652268  0.48479624    -0.80300
O317        O  0.74474260  0.26596905  0.53172424    -0.79000
C318        C  0.71924354  0.34111852  0.52926077     0.83600
C319        C  0.71105042  0.30849558  0.46386733     0.83200
O320        O  0.71613153  0.27519787  0.51796887    -0.77900
C321        C  0.77749694  0.26203241  0.48074035     0.84000
O322        O  0.71332569  0.32364534  0.52546184    -0.78000
C323        C  0.77874153  0.33849764  0.46964486     0.84200
C324        C  0.78952767  0.31699266  0.53921695     0.84500
O325        O  0.78112582  0.33073246  0.52944547    -0.80400
O326        O  0.02663380  0.71396570  0.70304315    -0.78000
C327        C  0.97705120  0.73260537  0.74365425     0.83100
O328        O  0.98318901  0.74249504  0.66140022    -0.79100
O329        O  0.96976360  0.79196171  0.71128253    -0.80600
O330        O  0.03848437  0.77347618  0.73465848    -0.80400
O331        O  0.04947686  0.73755672  0.70002500    -0.79000
Zn332      Zn  0.00083594  0.72882117  0.70608349     1.55700
O333        O  0.00854390  0.78429850  0.74360362    -0.80400
Cd334      Cd  0.03288503  0.76263900  0.70660137     1.59700
Cd335      Cd  0.99632557  0.76555424  0.67663266     1.59600
O336        O  0.04048939  0.78435161  0.68682943    -0.80400
O337        O  0.00445822  0.75681008  0.70337897    -1.90900
Cd338      Cd  0.98906332  0.77118662  0.72388208     1.59900
O339        O  0.01961314  0.77909638  0.66182262    -0.80300
O340        O  0.97377947  0.75101807  0.74117520    -0.79000
C341        C  0.97765914  0.72562551  0.66780380     0.83600
C342        C  0.04438078  0.71940127  0.69972863     0.83200
O343        O  0.98817293  0.72276466  0.73211089    -0.77900
C344        C  0.02712478  0.78259737  0.74661381     0.84000
O345        O  0.98271111  0.71920403  0.68473044    -0.78000
C346        C  0.03472898  0.78760077  0.66925516     0.84200
C347        C  0.96616196  0.79592926  0.69320567     0.84500
O348        O  0.97491356  0.78704766  0.67916753    -0.80400
C349        C  0.14764725  0.58834373  0.65431848     0.87000
C350        C  0.13555144  0.60443677  0.66468785    -0.53200
C351        C  0.12522124  0.61635312  0.65208788     0.10000
C352        C  0.12771486  0.61089487  0.63014165     0.20900
C353        C  0.13252506  0.57708375  0.64179725    -0.53900
C354        C  0.12214734  0.58871440  0.62884568     0.10100
C355        C  0.16051762  0.59939400  0.63934272    -0.53500
C356        C  0.15018439  0.61104114  0.62661764     0.10600
H357        H  0.13520402  0.60655633  0.68050390     0.15100
H358        H  0.11938168  0.62058157  0.61984855     0.00900
H359        H  0.13073864  0.56118449  0.64287308     0.15400
H360        H  0.17649942  0.59773898  0.63859753     0.15200
C361        C  0.15730724  0.36027751  0.41864561     0.87000
C362        C  0.16651460  0.37302176  0.40230155    -0.53200
C363        C  0.15308346  0.38386038  0.39167399     0.10000
C364        C  0.13145087  0.38062567  0.39850578     0.20900
C365        C  0.14532556  0.37499201  0.43122583    -0.53900
C366        C  0.13169983  0.38576587  0.42069711     0.10100
C367        C  0.14179708  0.34767728  0.40829316    -0.53500
C368        C  0.12800051  0.35805807  0.39788934     0.10600
H369        H  0.18234922  0.37359863  0.39979682     0.15100
H370        H  0.12039258  0.38896727  0.38984750     0.00900
H371        H  0.14763207  0.37682680  0.44692286     0.15400
H372        H  0.14179578  0.33168427  0.40951452     0.15200
C373        C  0.84585380  0.65268706  0.58498484     0.87000
C374        C  0.85649017  0.63663685  0.57298307    -0.53200
C375        C  0.87043699  0.62644656  0.58346476     0.10000
C376        C  0.87197096  0.63277895  0.60520543     0.20900
C377        C  0.83707852  0.64167591  0.60280316    -0.53900
C378        C  0.85071922  0.63114560  0.61335667     0.10100
C379        C  0.86243204  0.66546181  0.59353594    -0.53500
C380        C  0.87611185  0.65515537  0.60418592     0.10600
H381        H  0.85399518  0.63427182  0.55735669     0.15100
H382        H  0.88308849  0.62424006  0.61377115     0.00900
H383        H  0.82144493  0.64172132  0.60648514     0.15400
H384        H  0.86306481  0.68137298  0.59143758     0.15200
C385        C  0.85242899  0.42476186  0.34464063     0.87000
C386        C  0.86918586  0.43728778  0.35383129    -0.53200
C387        C  0.88077580  0.42696754  0.36681779     0.10000
C388        C  0.87498932  0.40508559  0.36897907     0.20900
C389        C  0.86309094  0.40708784  0.33511819    -0.53900
C390        C  0.87505684  0.39686429  0.34783762     0.10100
C391        C  0.84138527  0.41598805  0.36232063    -0.53500
C392        C  0.85313887  0.40571823  0.37500839     0.10600
H393        H  0.87103163  0.45302800  0.35135606     0.15100
H394        H  0.88446564  0.39670976  0.37947327     0.00900
H395        H  0.86169334  0.40335521  0.31962488     0.15400
H396        H  0.82557142  0.41779132  0.36462970     0.15200
C397        C  0.92307163  0.35130866  0.64440065     0.87000
C398        C  0.90724066  0.34249119  0.63087575    -0.53200
C399        C  0.89646446  0.35616021  0.62063800     0.10000
C400        C  0.90294854  0.37767473  0.62475432     0.20900
C401        C  0.93595005  0.36412526  0.63066817    -0.53900
C402        C  0.92542099  0.37803906  0.62023808     0.10100
C403        C  0.91208004  0.36606648  0.65740197    -0.53500
C404        C  0.90163446  0.38004496  0.64731801     0.10600
H405        H  0.90493763  0.32668620  0.62962294     0.15100
H406        H  0.89423376  0.38893805  0.61671015     0.00900
H407        H  0.95181748  0.36218881  0.62926457     0.15400
H408        H  0.91262605  0.36532634  0.67337138     0.15200
C409        C  0.07824974  0.66861338  0.35184641     0.87000
C410        C  0.06688455  0.65754105  0.36806297    -0.53200
C411        C  0.07808937  0.64384222  0.37782509     0.10000
C412        C  0.09974101  0.64277396  0.37078860     0.20900
C413        C  0.09619047  0.67767396  0.36262933    -0.53900
C414        C  0.10752043  0.66417607  0.37270614     0.10100
C415        C  0.08691100  0.65235418  0.33870809    -0.53500
C416        C  0.09822337  0.63889175  0.34852456     0.10600
H417        H  0.05124597  0.65974711  0.37102729     0.15100
H418        H  0.10858381  0.63150978  0.37880565     0.00900
H419        H  0.09938812  0.69337534  0.36249788     0.15400
H420        H  0.08441491  0.65169137  0.32290229     0.15200
O421        O  0.01371259  0.55487570  0.48036832    -0.78000
C422        C  0.96108726  0.54391109  0.51651824     0.83100
O423        O  0.03577131  0.51134014  0.53261713    -0.79100
O424        O  0.97074063  0.48100130  0.52205122    -0.80600
O425        O  0.98327860  0.49680829  0.45201772    -0.80400
O426        O  0.01821985  0.53247894  0.45672961    -0.79000
Zn427      Zn  0.00429937  0.53851336  0.50387897     1.55700
O428        O  0.96024440  0.49178505  0.47501369    -0.80400
Cd429      Cd  0.00753585  0.50649729  0.46853617     1.59700
Cd430      Cd  0.01873398  0.49350889  0.51391566     1.59600
O431        O  0.02990361  0.48573421  0.46557762    -0.80400
O432        O  0.00094222  0.51061187  0.49699040    -1.90900
Cd433      Cd  0.97257596  0.50292608  0.50081249     1.59900
O434        O  0.03811355  0.47701265  0.49627071    -0.80300
O435        O  0.95576112  0.52677418  0.51075357    -0.79000
C436        C  0.03623079  0.53008327  0.53492790     0.83600
C437        C  0.01944068  0.55014021  0.46310329     0.83200
O438        O  0.97892127  0.54985292  0.51496764    -0.77900
C439        C  0.96611958  0.49086582  0.45717957     0.84000
O440        O  0.02507167  0.54158150  0.52502430    -0.78000
C441        C  0.04042993  0.47575003  0.47762356     0.84200
C442        C  0.98308033  0.47125411  0.53247506     0.84500
O443        O  0.00175836  0.47404105  0.53118350    -0.80400
C444        C  0.65538050  0.36147605  0.08222550     0.87000
C445        C  0.64492512  0.37759729  0.06987445    -0.53200
C446        C  0.63162495  0.38875067  0.08037326     0.10000
C447        C  0.63035105  0.38276707  0.10231568     0.20900
C448        C  0.66480674  0.37265169  0.09958113    -0.53900
C449        C  0.65174171  0.38389890  0.11000923     0.10100
C450        C  0.63844974  0.34953609  0.09132131    -0.53500
C451        C  0.62541208  0.36056335  0.10185948     0.10600
H452        H  0.64761862  0.37981492  0.05429736     0.15100
H453        H  0.61972063  0.39148491  0.11119473     0.00900
H454        H  0.68049719  0.37204323  0.10304054     0.15400
H455        H  0.63704315  0.33360437  0.08977680     0.15200
C456        C  0.58085365  0.66609590  0.14442422     0.87000
C457        C  0.59754792  0.67536221  0.13216877    -0.53200
C458        C  0.60762127  0.66223502  0.12053899     0.10000
C459        C  0.59978652  0.64077486  0.12239419     0.20900
C460        C  0.56757860  0.65569729  0.12911678    -0.53900
C461        C  0.57747496  0.64225493  0.11773490     0.10100
C462        C  0.59069656  0.64925438  0.15594146    -0.53500
C463        C  0.60050645  0.63589571  0.14454064     0.10600
H464        H  0.60102502  0.69100193  0.13277559     0.15100
H465        H  0.60758152  0.62978473  0.11310863     0.00900
H466        H  0.55172028  0.65801278  0.12797290     0.15400
H467        H  0.58976983  0.64799240  0.17187392     0.15200
C468        C  0.41811215  0.35172010  0.85204182     0.87000
C469        C  0.43159771  0.36243715  0.86696104    -0.53200
C470        C  0.42171699  0.37560140  0.87872950     0.10000
C471        C  0.39924438  0.37663742  0.87446840     0.20900
C472        C  0.40177879  0.34215046  0.86468439    -0.53900
C473        C  0.39175021  0.35512390  0.87649784     0.10100
C474        C  0.40784584  0.36842299  0.84077604    -0.53500
C475        C  0.39806627  0.38147910  0.85239442     0.10600
H476        H  0.44740720  0.36003234  0.86810498     0.15100
H477        H  0.39117954  0.38755516  0.88353365     0.00900
H478        H  0.39842060  0.32648456  0.86400891     0.15400
H479        H  0.40846908  0.36992816  0.82483602     0.15200
C480        C  0.34091626  0.65118975  0.91441171     0.87000
C481        C  0.33160313  0.63923559  0.89752209    -0.53200
C482        C  0.34492392  0.62814660  0.88701662     0.10000
C483        C  0.36648498  0.63040443  0.89447349     0.20900
C484        C  0.35197092  0.63562698  0.92692433    -0.53900
C485        C  0.36550117  0.62485616  0.91646755     0.10100
C486        C  0.35723105  0.66346479  0.90473039    -0.53500
C487        C  0.37071620  0.65274504  0.89441400     0.10600
H488        H  0.31585950  0.63951666  0.89439420     0.15100
H489        H  0.37759966  0.62166430  0.88624294     0.00900
H490        H  0.34974586  0.63356975  0.94262251     0.15400
H491        H  0.35810177  0.67943511  0.90620048     0.15200
C492        C  0.64306503  0.58578773  0.84046470     0.87000
C493        C  0.63002235  0.57327719  0.85425560    -0.53200
C494        C  0.61878135  0.58415693  0.86709298     0.10000
C495        C  0.62199968  0.60676461  0.86490857     0.20900
C496        C  0.62856234  0.59989965  0.83020946    -0.53900
C497        C  0.61770071  0.61111192  0.84292640     0.10100
C498        C  0.65535273  0.59886821  0.85416486    -0.53500
C499        C  0.64449966  0.60970494  0.86705150     0.10600
H500        H  0.62942365  0.55729654  0.85360601     0.15100
H501        H  0.61328756  0.61606189  0.87516022     0.00900
H502        H  0.62759164  0.60150848  0.81430597     0.15400
H503        H  0.67143730  0.59929398  0.85388942     0.15200
C504        C  0.35246565  0.42462689  0.15897721     0.87000
C505        C  0.36446131  0.40772710  0.16838887    -0.53200
C506        C  0.37566542  0.39718561  0.15522323     0.10000
C507        C  0.37343764  0.40460244  0.13369121     0.20900
C508        C  0.36796188  0.43718284  0.14793893    -0.53900
C509        C  0.37869295  0.42676091  0.13440625     0.10100
C510        C  0.34025254  0.41477562  0.14270592    -0.53500
C511        C  0.35111478  0.40442308  0.12941768     0.10600
H512        H  0.36446899  0.40475093  0.18406553     0.15100
H513        H  0.38217014  0.39629444  0.12264390     0.00900
H514        H  0.36934771  0.45307814  0.14971222     0.15400
H515        H  0.32426937  0.41623839  0.14161074     0.15200
O516        O  0.47565253  0.54717225  0.98200146    -0.78000
C517        C  0.51492462  0.54817946  0.03522283     0.83100
O518        O  0.53269483  0.50872252  0.96514611    -0.79100
O519        O  0.52638090  0.48391704  0.03273532    -0.80600
O520        O  0.45656412  0.48869243  0.02215409    -0.80400
O521        O  0.45257851  0.52392587  0.98605720    -0.79000
Zn522      Zn  0.50104264  0.53619659  0.99383126     1.55700
O523        O  0.47942061  0.49401739  0.04526635    -0.80400
Cd524      Cd  0.46933872  0.50018652  0.99655227     1.59700
Cd525      Cd  0.51569905  0.49105657  0.98409295     1.59600
O526        O  0.46804603  0.47822964  0.97541819    -0.80400
O527        O  0.49762820  0.50822408  0.00070503    -1.90900
Cd528      Cd  0.50377266  0.50430617  0.02930945     1.59900
O529        O  0.49914465  0.47166456  0.96642735    -0.80300
O530        O  0.51367534  0.53046340  0.04155517    -0.79000
C531        C  0.53300613  0.52744137  0.96261163     0.83600
C532        C  0.45788973  0.54103868  0.98012597     0.83200
O533        O  0.50979233  0.55284897  0.01768794    -0.77900
C534        C  0.46236401  0.48783876  0.04003765     0.84000
O535        O  0.52201325  0.53896283  0.97265634    -0.78000
C536        C  0.48051895  0.46866088  0.96506120     0.84200
C537        C  0.53700669  0.47373046  0.02103023     0.84500
O538        O  0.53479335  0.47458653  0.00231868    -0.80400
O539        O  0.29639649  0.48453307  0.70076336    -0.78000
C540        C  0.25237014  0.52920049  0.72368942     0.83100
O541        O  0.33706807  0.52466951  0.73008551    -0.79100
O542        O  0.28859201  0.53617754  0.78126501    -0.80600
O543        O  0.26209788  0.46869471  0.76064941    -0.80400
O544        O  0.29283923  0.45886342  0.72100453    -0.79000
Zn545      Zn  0.29174889  0.50870831  0.71744878     1.55700
O546        O  0.25641967  0.49754819  0.77554344    -0.80400
Cd547      Cd  0.28977071  0.47383788  0.74790222     1.59700
Cd548      Cd  0.32206234  0.51020408  0.75308641     1.59600
O549        O  0.31125104  0.46359391  0.76704194    -0.80400
O550        O  0.29471353  0.50271161  0.74480323    -1.90900
Cd551      Cd  0.27483747  0.51730806  0.76090443     1.59900
O552        O  0.33630804  0.48518913  0.76419642    -0.80300
O553        O  0.25533447  0.53187343  0.74208125    -0.79000
C554        C  0.32992158  0.53187770  0.71415598     0.83600
C555        C  0.29634539  0.46597114  0.70391262     0.83200
O556        O  0.26455310  0.51975020  0.71289748    -0.77900
C557        C  0.25189864  0.47953750  0.77221138     0.84000
O558        O  0.31228462  0.52816360  0.70865315    -0.78000
C559        C  0.32891302  0.46909661  0.77084469     0.84200
C560        C  0.30681760  0.53914317  0.78545737     0.84500
O561        O  0.32074552  0.53036402  0.77626250    -0.80400
C562        C  0.65723707  0.64895500  0.42056146     0.87000
C563        C  0.64570744  0.63365876  0.43265689    -0.53200
C564        C  0.63244475  0.62279821  0.42187434     0.10000
C565        C  0.63232279  0.62831902  0.39970357     0.20900
C566        C  0.66708159  0.63699950  0.40403622    -0.53900
C567        C  0.65408127  0.62619258  0.39298782     0.10100
C568        C  0.64130902  0.66135437  0.41026825    -0.53500
C569        C  0.62824193  0.65067274  0.39941896     0.10600
H570        H  0.64759490  0.63211146  0.44845822     0.15100
H571        H  0.62161163  0.61985822  0.39073076     0.00900
H572        H  0.68281503  0.63729556  0.40108479     0.15400
H573        H  0.64036452  0.67734030  0.41159598     0.15200
C574        C  0.64420316  0.42653512  0.65719278     0.87000
C575        C  0.62859875  0.43879929  0.64597305    -0.53200
C576        C  0.61809010  0.42826508  0.63218236     0.10000
C577        C  0.62432233  0.40630768  0.63111028     0.20900
C578        C  0.63258477  0.40909190  0.66601072    -0.53900
C579        C  0.62202763  0.39840443  0.65244236     0.10100
C580        C  0.65698804  0.41736171  0.64110481    -0.53500
C581        C  0.64681320  0.40703084  0.62727863     0.10600
H582        H  0.62639912  0.45447003  0.64856451     0.15100
H583        H  0.61623840  0.39772843  0.61982405     0.00900
H584        H  0.63244054  0.40579122  0.68161581     0.15400
H585        H  0.67295296  0.41920735  0.64063148     0.15200
C586        C  0.41680926  0.66173753  0.64258045     0.87000
C587        C  0.42959142  0.65074828  0.62740081    -0.53200
C588        C  0.41932267  0.63716769  0.61642676     0.10000
C589        C  0.39706660  0.63619432  0.62160300     0.20900
C590        C  0.39992974  0.67094480  0.63058075    -0.53900
C591        C  0.38963711  0.65766998  0.61951282     0.10100
C592        C  0.40704784  0.64531620  0.65473846    -0.53500
C593        C  0.39688660  0.63176789  0.64390305     0.10600
H594        H  0.44543051  0.65305473  0.62609279     0.15100
H595        H  0.38830070  0.62552442  0.61284884     0.00900
H596        H  0.39658428  0.68661387  0.63031816     0.15400
H597        H  0.40846444  0.64430781  0.67065900     0.15200
C598        C  0.35538186  0.59108873  0.34080888     0.87000
C599        C  0.36702055  0.60835676  0.33173090    -0.53200
C600        C  0.37750289  0.61931402  0.34513712     0.10000
C601        C  0.37511810  0.61173965  0.36657472     0.20900
C602        C  0.37098496  0.57901262  0.35208929    -0.53900
C603        C  0.38113530  0.58978628  0.36577755     0.10100
C604        C  0.34248324  0.60045536  0.35672302    -0.53500
C605        C  0.35267209  0.61119895  0.37030992     0.10600
H606        H  0.36709579  0.61136004  0.31603663     0.15100
H607        H  0.38346316  0.62017714  0.37781477     0.00900
H608        H  0.37314687  0.56322781  0.35014187     0.15400
H609        H  0.32652949  0.59854241  0.35714277     0.15200
C610        C  0.58502702  0.35120782  0.35416153     0.87000
C611        C  0.60267207  0.34221494  0.36524001    -0.53200
C612        C  0.61301816  0.35556419  0.37621165     0.10000
C613        C  0.60491455  0.37682814  0.37491393     0.20900
C614        C  0.57259325  0.36145396  0.37019382    -0.53900
C615        C  0.58300250  0.37511328  0.38083087     0.10100
C616        C  0.59376418  0.36819999  0.34197813    -0.53500
C617        C  0.60420037  0.38154782  0.35276404     0.10600
H618        H  0.60638597  0.32659252  0.36479801     0.15100
H619        H  0.61340845  0.38775784  0.38372414     0.00900
H620        H  0.55690322  0.35893426  0.37243311     0.15400
H621        H  0.59191022  0.36950731  0.32611717     0.15200
C622        C  0.33935014  0.35490274  0.57878170     0.87000
C623        C  0.32980908  0.36617941  0.59596181    -0.53200
C624        C  0.34274158  0.37767522  0.60631248     0.10000
C625        C  0.36424919  0.37663011  0.59866689     0.20900
C626        C  0.34961176  0.37103439  0.56628704    -0.53900
C627        C  0.36298181  0.38221380  0.57664857     0.10100
C628        C  0.35641038  0.34321781  0.58812895    -0.53500
C629        C  0.36939174  0.35446901  0.59850437     0.10600
H630        H  0.31413574  0.36586432  0.59933483     0.15100
H631        H  0.37487086  0.38576712  0.60721072     0.00900
H632        H  0.34740906  0.37260706  0.55050883     0.15400
H633        H  0.35803763  0.32729374  0.58671894     0.15200
O634        O  0.47477976  0.46233131  0.51435544    -0.78000
C635        C  0.51740869  0.46589907  0.46368768     0.83100
O636        O  0.52955311  0.50309069  0.53548352    -0.79100
O637        O  0.52470116  0.52936669  0.46723168    -0.80600
O638        O  0.45518005  0.52122948  0.47618170    -0.80400
O639        O  0.45122336  0.48517548  0.51133860    -0.79000
Zn640      Zn  0.50036567  0.47527246  0.50458973     1.55700
O641        O  0.47884286  0.51796384  0.45354317    -0.80400
Cd642      Cd  0.46770133  0.50960205  0.50172842     1.59700
Cd643      Cd  0.51397519  0.52062017  0.51501659     1.59600
O644        O  0.46551571  0.53139555  0.52266311    -0.80400
O645        O  0.49641206  0.50316365  0.49812624    -1.90900
Cd646      Cd  0.50297068  0.50828448  0.46987981     1.59900
O647        O  0.49630046  0.54096045  0.53025674    -0.80300
O648        O  0.51496093  0.48345584  0.45737330    -0.79000
C649        C  0.53013003  0.48432841  0.53785026     0.83600
C650        C  0.45679231  0.46781059  0.51623568     0.83200
O651        O  0.51183472  0.46052597  0.48087461    -0.77900
C652        C  0.46144252  0.52316942  0.45856770     0.84000
O653        O  0.51999049  0.47271576  0.52703891    -0.78000
C654        C  0.47752239  0.54256177  0.53192686     0.84200
C655        C  0.53613804  0.53840154  0.47908114     0.84500
O656        O  0.53459954  0.53642190  0.49775830    -0.80400
O657        O  0.48000044  0.72141141  0.76196244    -0.78000
C658        C  0.53612483  0.71373974  0.79408393     0.83100
O659        O  0.47508879  0.73946923  0.83271309    -0.79100
O660        O  0.53524410  0.77789077  0.80970133    -0.80600
O661        O  0.50406479  0.78181998  0.75190537    -0.80400
O662        O  0.46753568  0.75038572  0.75221948    -0.79000
Zn663      Zn  0.49310286  0.72581709  0.78804228     1.55700
O664        O  0.53346451  0.76984772  0.76127813    -0.80400
Cd665      Cd  0.48354847  0.76910730  0.77066406     1.59700
Cd666      Cd  0.48980083  0.76221522  0.81816691     1.59600
O667        O  0.46574032  0.79108154  0.78318227    -0.80400
O668        O  0.49798161  0.75354744  0.79134453    -1.90900
Cd669      Cd  0.52679357  0.75782431  0.78874140     1.59900
O670        O  0.47035535  0.78554376  0.81532923    -0.80300
O671        O  0.54204616  0.73164557  0.79440780    -0.79000
C672        C  0.46974030  0.72256907  0.82628278     0.83600
C673        C  0.46992064  0.73182262  0.74990359     0.83200
O674        O  0.51814666  0.70934956  0.79043855    -0.77900
C675        C  0.52264092  0.77968145  0.74931698     0.84000
O676        O  0.47497833  0.71626168  0.80940793    -0.78000
C677        C  0.46256609  0.79532364  0.80124479     0.84200
C678        C  0.52930274  0.78141895  0.82713475     0.84500
O679        O  0.51345373  0.77390315  0.83411223    -0.80400
O680        O  0.26677336  0.99249062  0.21386173    -0.78000
C681        C  0.29862237  0.04827024  0.21071430     0.83100
O682        O  0.33827759  0.98835591  0.23394991    -0.79100
O683        O  0.30946548  0.04619119  0.27418081    -0.80600
O684        O  0.25493852  0.00858092  0.27612180    -0.80400
O685        O  0.26007945  0.97541476  0.24130911    -0.79000
Zn686      Zn  0.29334221  0.00445759  0.22035641     1.55700
O687        O  0.26152919  0.03896696  0.26475954    -0.80400
Cd688      Cd  0.27612617  0.99106357  0.26215670     1.59700
Cd689      Cd  0.32283504  0.00218699  0.25668589     1.59600
O690        O  0.29042734  0.97225741  0.28233702    -0.80400
O691        O  0.29545959  0.00826642  0.24810208    -1.90900
Cd692      Cd  0.28968807  0.03641852  0.25327560     1.59900
O693        O  0.32198401  0.98153221  0.27906813    -0.80300
O694        O  0.29410141  0.05388802  0.22807819    -0.79000
C695        C  0.33160101  0.98155875  0.21769349     0.83600
C696        C  0.25641212  0.97991107  0.22338708     0.83200
O697        O  0.29865428  0.03005541  0.20599600    -0.77900
C698        C  0.25058145  0.02687901  0.27426146     0.84000
O699        O  0.31432636  0.98573383  0.21147075    -0.78000
C700        C  0.30868705  0.97092340  0.28716662     0.84200
C701        C  0.32767659  0.04210688  0.27689400     0.84500
O702        O  0.33607932  0.02730172  0.26872255    -0.80400
O703        O  0.20844937  0.80533293  0.97797643    -0.78000
C704        C  0.22921673  0.76136576  0.02455939     0.83100
O705        O  0.23673647  0.84525403  0.01950103    -0.79100
O706        O  0.28766121  0.79662342  0.03198723    -0.80600
O707        O  0.26786495  0.77228293  0.96340715    -0.80400
O708        O  0.22959285  0.80486742  0.95286983    -0.79000
Zn709      Zn  0.22423438  0.80016330  0.00264401     1.55700
O710        O  0.28118393  0.76388326  0.99246296    -0.80400
Cd711      Cd  0.25597045  0.79997112  0.96878190     1.59700
Cd712      Cd  0.26002693  0.83064555  0.00524031     1.59600
O713        O  0.27666502  0.82061368  0.95989179    -0.80400
O714        O  0.25189299  0.80334555  0.99759317    -1.90900
Cd715      Cd  0.26735225  0.78291592  0.01252234     1.59900
O716        O  0.27264473  0.84555521  0.98111895    -0.80300
O717        O  0.24771221  0.76417004  0.02739525    -0.79000
C718        C  0.22070266  0.83789901  0.02632325     0.83600
C719        C  0.21212161  0.80723487  0.95966100     0.83200
O720        O  0.21880029  0.77321720  0.01420107    -0.77900
C721        C  0.27830569  0.76072166  0.97409647     0.84000
O722        O  0.21508491  0.82049782  0.02192488    -0.78000
C723        C  0.28027117  0.83821953  0.96550167     0.84200
C724        C  0.29127464  0.81492038  0.03532807     0.84500
O725        O  0.28212945  0.82872241  0.02627552    -0.80400
C726        C  0.35537645  0.92662658  0.84062744     0.87000
C727        C  0.37033715  0.93942965  0.85213095    -0.53200
C728        C  0.38177164  0.92878764  0.86509119     0.10000
C729        C  0.37737296  0.90640031  0.86503083     0.20900
C730        C  0.36806005  0.91080564  0.83057168    -0.53900
C731        C  0.37971862  0.90012618  0.84321544     0.10100
C732        C  0.34375386  0.91558480  0.85656735    -0.53500
C733        C  0.35509647  0.90503365  0.86935614     0.10600
H734        H  0.37140384  0.95537104  0.85074810     0.15100
H735        H  0.38651134  0.89791810  0.87565998     0.00900
H736        H  0.36770172  0.90845450  0.81477630     0.15400
H737        H  0.32772973  0.91632488  0.85778487     0.15200
C738        C  0.64817594  0.86039125  0.91468230     0.87000
C739        C  0.65833113  0.87180936  0.89793021    -0.53200
C740        C  0.64598067  0.88409558  0.88776373     0.10000
C741        C  0.62445044  0.88384888  0.89527999     0.20900
C742        C  0.63844280  0.87642185  0.92761251    -0.53900
C743        C  0.62576807  0.88870489  0.91750563     0.10100
C744        C  0.63080759  0.84977387  0.90497270    -0.53500
C745        C  0.61840839  0.86193203  0.89487857     0.10600
H746        H  0.67395938  0.87035777  0.89446896     0.15100
H747        H  0.61432554  0.89346772  0.88667084     0.00900
H748        H  0.64106784  0.87766991  0.94330532     0.15400
H749        H  0.62850425  0.83389180  0.90596454     0.15200
C750        C  0.41954299  0.85197124  0.14823117     0.87000
C751        C  0.40327845  0.84182877  0.13599680    -0.53200
C752        C  0.39233652  0.85453858  0.12458010     0.10000
C753        C  0.39894338  0.87639198  0.12655218     0.20900
C754        C  0.43199886  0.86348230  0.13311629    -0.53900
C755        C  0.42131408  0.87644270  0.12171901     0.10100
C756        C  0.40871511  0.86793398  0.15994287    -0.53500
C757        C  0.39817647  0.88089698  0.14875708     0.10600
H758        H  0.40053226  0.82606384  0.13643452     0.15100
H759        H  0.39022209  0.88702036  0.11769863     0.00900
H760        H  0.44793137  0.86180778  0.13200043     0.15400
H761        H  0.40970661  0.86907874  0.17587814     0.15200
C762        C  0.34169299  0.15747237  0.08437058     0.87000
C763        C  0.35114679  0.14110348  0.07160526    -0.53200
C764        C  0.36485005  0.12990264  0.08149452     0.10000
C765        C  0.36730590  0.13571575  0.10331165     0.20900
C766        C  0.33294447  0.14651153  0.10216972    -0.53900
C767        C  0.34626700  0.13506278  0.11206735     0.10100
C768        C  0.35932626  0.16908532  0.09265787    -0.53500
C769        C  0.37286565  0.15775893  0.10252837     0.10600
H770        H  0.34811109  0.13917625  0.05603409     0.15100
H771        H  0.37807607  0.12642658  0.11150059     0.00900
H772        H  0.31743945  0.14736523  0.10629624     0.15400
H773        H  0.36089882  0.18494808  0.09071856     0.15200
C774        C  0.58199417  0.16400852  0.85252935     0.87000
C775        C  0.57014386  0.15331101  0.86867962    -0.53200
C776        C  0.58101995  0.14001884  0.87935892     0.10000
C777        C  0.60301485  0.13906296  0.87322827     0.20900
C778        C  0.59937108  0.17366621  0.86349441    -0.53900
C779        C  0.61052485  0.16074912  0.87447586     0.10100
C780        C  0.59147988  0.14743422  0.84039268    -0.53500
C781        C  0.60234618  0.13422597  0.85105439     0.10600
H782        H  0.55431993  0.15526758  0.87071288     0.15100
H783        H  0.61164930  0.12824311  0.88200310     0.00900
H784        H  0.60247274  0.18934039  0.86282707     0.15400
H785        H  0.58958007  0.14634851  0.82454731     0.15200
C786        C  0.64729471  0.08898745  0.15521227     0.87000
C787        C  0.63533206  0.10466578  0.16642681    -0.53200
C788        C  0.62281704  0.11538446  0.15476613     0.10000
C789        C  0.62354889  0.10955130  0.13282899     0.20900
C790        C  0.63163943  0.07635522  0.14443274    -0.53900
C791        C  0.61921801  0.08710595  0.13246720     0.10100
C792        C  0.65780037  0.10032607  0.13876094    -0.53500
C793        C  0.64548620  0.11099091  0.12697555     0.10600
H794        H  0.63651394  0.10693881  0.18222459     0.15100
H795        H  0.61379972  0.11870762  0.12336282     0.00900
H796        H  0.63081611  0.06041936  0.14579108     0.15400
H797        H  0.67367035  0.09950395  0.13626277     0.15200
O798        O  0.48066478  0.99666500  0.95577487    -0.78000
C799        C  0.51641581  0.05027006  0.96552444     0.83100
O800        O  0.53400896  0.97679440  0.99954823    -0.79100
O801        O  0.52141380  0.04151416  0.02925950    -0.80600
O802        O  0.45143763  0.02830821  0.01187105    -0.80400
O803        O  0.45681668  0.99143437  0.97786004    -0.79000
Zn804      Zn  0.50396415  0.00709692  0.97188034     1.55700
O805        O  0.47447714  0.05133090  0.01734979    -0.80400
Cd806      Cd  0.46833506  0.00382393  0.00330422     1.59700
Cd807      Cd  0.51404473  0.99315277  0.01707801     1.59600
O808        O  0.46537639  0.98225191  0.02476592    -0.80400
O809        O  0.49701194  0.01066502  0.99960380    -1.90900
Cd810      Cd  0.50073451  0.03919596  0.00678234     1.59900
O811        O  0.49607728  0.97361049  0.03349343    -0.80300
O812        O  0.51109899  0.05571892  0.98273082    -0.79000
C813        C  0.53641386  0.97646808  0.98084082     0.83600
C814        C  0.46354239  0.99018583  0.96037219     0.83200
O815        O  0.51453954  0.03242460  0.95983649    -0.77900
C816        C  0.45653736  0.04544515  0.01787285     0.84000
O817        O  0.52591116  0.98710356  0.96938204    -0.78000
C818        C  0.47728269  0.97161829  0.03481366     0.84200
C819        C  0.53145504  0.02931967  0.03958579     0.84500
O820        O  0.53031665  0.01062338  0.03697920    -0.80400
O821        O  0.98093512  0.79217845  0.23013815    -0.78000
C822        C  0.03431634  0.79874513  0.19699215     0.83100
O823        O  0.97739598  0.77441548  0.15751283    -0.79100
O824        O  0.03584824  0.73476895  0.18687012    -0.80600
O825        O  0.99941123  0.72868423  0.23921071    -0.80400
O826        O  0.96661647  0.76359537  0.23862901    -0.79000
Zn827      Zn  0.99129715  0.78690998  0.20271976     1.55700
O828        O  0.02823890  0.74426754  0.23486467    -0.80400
Cd829      Cd  0.98086408  0.74392346  0.21979829     1.59700
Cd830      Cd  0.99121410  0.75122193  0.17292343     1.59600
O831        O  0.96209108  0.72411259  0.20508226    -0.80400
O832        O  0.99673450  0.75936329  0.20041888    -1.90900
Cd833      Cd  0.02503465  0.75541546  0.20647373     1.59900
O834        O  0.97091493  0.72840941  0.17358983    -0.80300
O835        O  0.04075773  0.78167096  0.20186878    -0.79000
C836        C  0.96926623  0.79004702  0.16437761     0.83600
C837        C  0.97071981  0.78170836  0.24207678     0.83200
O838        O  0.01588559  0.80264596  0.19669962    -0.77900
C839        C  0.01706367  0.73263676  0.24468907     0.84000
O840        O  0.97183917  0.79549809  0.18215044    -0.78000
C841        C  0.96077234  0.71962689  0.18681290     0.84200
C842        C  0.03187565  0.73156893  0.16878310     0.84500
O843        O  0.01681871  0.73923506  0.16020374    -0.80400
O844        O  0.78597340  0.24106352  0.98475431    -0.78000
C845        C  0.78988044  0.20841793  0.03987549     0.83100
O846        O  0.76471830  0.16947702  0.98063518    -0.79100
O847        O  0.72534440  0.19635065  0.03878955    -0.80600
O848        O  0.72342990  0.25329783  0.00398242    -0.80400
O849        O  0.75801253  0.25028426  0.96978949    -0.79000
Zn850      Zn  0.77890237  0.21452873  0.99656303     1.55700
O851        O  0.73447068  0.24430588  0.03382938    -0.80400
Cd852      Cd  0.73700097  0.23313086  0.98481210     1.59700
Cd853      Cd  0.74184030  0.18540767  0.99381331     1.59600
O854        O  0.71644105  0.21982943  0.96520354    -0.80400
O855        O  0.75099723  0.21251083  0.00097760    -1.90900
Cd856      Cd  0.74640851  0.21651066  0.02958614     1.59900
O857        O  0.72050855  0.18780033  0.97224308    -0.80300
O858        O  0.77238201  0.21182360  0.04612388    -0.79000
C859        C  0.78103935  0.17613646  0.97382801     0.83600
C860        C  0.77642260  0.25275196  0.97343563     0.83200
O861        O  0.79404738  0.20927407  0.02159573    -0.77900
C862        C  0.72512384  0.25622454  0.02253510     0.84000
O863        O  0.78724548  0.19343156  0.97785589    -0.78000
C864        C  0.71212924  0.20157501  0.96248346     0.84200
C865        C  0.72052686  0.17905217  0.03309954     0.84500
O866        O  0.72765142  0.17134248  0.01745883    -0.80400
O867        O  0.23027299  0.02166026  0.71608507    -0.78000
C868        C  0.19538392  0.96879614  0.71100935     0.83100
O869        O  0.15850801  0.02866091  0.73713201    -0.79100
O870        O  0.18555629  0.96820888  0.77484693    -0.80600
O871        O  0.24138213  0.00171847  0.77888743    -0.80400
O872        O  0.24072703  0.03507617  0.74430081    -0.79000
Zn873      Zn  0.20286111  0.01172355  0.72277810     1.55700
O874        O  0.23351179  0.97242950  0.76579609    -0.80400
Cd875      Cd  0.22219020  0.02148764  0.76490395     1.59700
Cd876      Cd  0.17427538  0.01396669  0.75959245     1.59600
O877        O  0.20935753  0.04136114  0.78531362    -0.80400
O878        O  0.20125467  0.00648619  0.75039800    -1.90900
Cd879      Cd  0.20555479  0.97767996  0.75410093     1.59900
O880        O  0.17716170  0.03471848  0.78161262    -0.80300
O881        O  0.19999069  0.96199351  0.72798092    -0.79000
C882        C  0.16527873  0.03599576  0.72109307     0.83600
C883        C  0.24297624  0.03152818  0.72593972     0.83200
O884        O  0.19584344  0.98726406  0.70732427    -0.77900
C885        C  0.24486844  0.98335185  0.77618686     0.84000
O886        O  0.18260834  0.03191206  0.71493463    -0.78000
C887        C  0.19118078  0.04416043  0.78993287     0.84200
C888        C  0.16820832  0.97375133  0.77968071     0.84500
O889        O  0.16035519  0.98961219  0.77293605    -0.80400
C890        C  0.15660123  0.15612951  0.91862720     0.87000
C891        C  0.14654861  0.13994264  0.93102509    -0.53200
C892        C  0.13316524  0.12884862  0.92071647     0.10000
C893        C  0.13152308  0.13466701  0.89874487     0.20900
C894        C  0.16603833  0.14496000  0.90132375    -0.53900
C895        C  0.15301515  0.13354642  0.89082279     0.10100
C896        C  0.13958206  0.16790041  0.90946549    -0.53500
C897        C  0.12638901  0.15684734  0.89910533     0.10600
H898        H  0.14898863  0.13817740  0.94675249     0.15100
H899        H  0.12062893  0.12560031  0.89055141     0.00900
H900        H  0.18166131  0.14569485  0.89788932     0.15400
H901        H  0.13815798  0.18380972  0.91113000     0.15200
C902        C  0.14839810  0.92260013  0.15719274     0.87000
C903        C  0.13233080  0.93478346  0.14661635    -0.53200
C904        C  0.12191325  0.92432817  0.13288618     0.10000
C905        C  0.12812261  0.90244592  0.13141758     0.20900
C906        C  0.13726533  0.90491180  0.16616926    -0.53900
C907        C  0.12641974  0.89444695  0.15269356     0.10100
C908        C  0.16093925  0.91373727  0.14068360    -0.53500
C909        C  0.15051181  0.90320714  0.12714004     0.10600
H910        H  0.13013368  0.95049940  0.14903653     0.15100
H911        H  0.11948848  0.89390447  0.12041210     0.00900
H912        H  0.13716202  0.90144532  0.18178631     0.15400
H913        H  0.17687891  0.91570791  0.13986091     0.15200
C914        C  0.91885536  0.16670978  0.14578838     0.87000
C915        C  0.93052793  0.15660465  0.12912488    -0.53200
C916        C  0.91986577  0.14247179  0.11941118     0.10000
C917        C  0.89847021  0.14019680  0.12680453     0.20900
C918        C  0.90024090  0.17498121  0.13570617    -0.53900
C919        C  0.88961426  0.16114524  0.12567337     0.10100
C920        C  0.91145142  0.14969821  0.15884729    -0.53500
C921        C  0.90070646  0.13584407  0.14897356     0.10600
H922        H  0.94599695  0.15956573  0.12596256     0.15100
H923        H  0.88978822  0.12890864  0.11865477     0.00900
H924        H  0.89619288  0.19052292  0.13584347     0.15400
H925        H  0.91417928  0.14893357  0.17461152     0.15200
C926        C  0.83938221  0.86223472  0.07677506     0.87000
C927        C  0.82967915  0.87512456  0.09270557    -0.53200
C928        C  0.84278109  0.88579604  0.10383079     0.10000
C929        C  0.86465438  0.88246203  0.09766228     0.20900
C930        C  0.85198500  0.87667667  0.06453304    -0.53900
C931        C  0.86550134  0.88724006  0.07531934     0.10100
C932        C  0.85448294  0.84948038  0.08782873    -0.53500
C933        C  0.86787183  0.85990812  0.09863609     0.10600
H934        H  0.81382398  0.87586760  0.09488180     0.15100
H935        H  0.87551281  0.89068221  0.10664037     0.00900
H936        H  0.85067455  0.87781806  0.04863759     0.15400
H937        H  0.85472963  0.83346094  0.08676736     0.15200
C938        C  0.08035372  0.85222823  0.85545017     0.87000
C939        C  0.09700070  0.84201793  0.86708447    -0.53200
C940        C  0.10712273  0.85429151  0.87940403     0.10000
C941        C  0.09960419  0.87577627  0.87904701     0.20900
C942        C  0.06709226  0.86205464  0.87122651    -0.53900
C943        C  0.07716458  0.87469430  0.88355446     0.10100
C944        C  0.09033195  0.86962992  0.84501666    -0.53500
C945        C  0.10034421  0.88192604  0.85729193     0.10600
H946        H  0.10068478  0.82647267  0.86545205     0.15100
H947        H  0.10836750  0.88573689  0.88858558     0.00900
H948        H  0.05121992  0.85988787  0.87203754     0.15400
H949        H  0.08946897  0.87210007  0.82920403     0.15200
C950        C  0.85197920  0.08531214  0.84707324     0.87000
C951        C  0.86336583  0.10265870  0.83765455    -0.53200
C952        C  0.87424667  0.11344270  0.85080934     0.10000
C953        C  0.87271506  0.10586245  0.87220361     0.20900
C954        C  0.86776236  0.07315596  0.85800561    -0.53900
C955        C  0.87861155  0.08380289  0.87133670     0.10100
C956        C  0.83965822  0.09480484  0.86338816    -0.53500
C957        C  0.85036476  0.10545053  0.87659863     0.10600
H958        H  0.86311746  0.10616348  0.82207083     0.15100
H959        H  0.88123397  0.11476830  0.88296494     0.00900
H960        H  0.86971718  0.05740222  0.85569854     0.15400
H961        H  0.82368636  0.09319328  0.86437167     0.15200
O962        O  0.98773438  0.05334364  0.02022907    -0.78000
C963        C  0.04118321  0.04474995  0.98479278     0.83100
O964        O  0.96810690  0.00991392  0.96693396    -0.79100
O965        O  0.03331933  0.98130954  0.97882113    -0.80600
O966        O  0.01883366  0.99507105  0.04839780    -0.80400
O967        O  0.98323728  0.03070447  0.04376897    -0.79000
Zn968      Zn  0.99794905  0.03769672  0.99675575     1.55700
O969        O  0.04246415  0.99141281  0.02573920    -0.80400
Cd970      Cd  0.99475279  0.00511005  0.03171572     1.59700
Cd971      Cd  0.98481367  0.99244263  0.98616410     1.59600
O972        O  0.97277478  0.98381618  0.03374091    -0.80400
O973        O  0.00189086  0.00984915  0.00346977    -1.90900
Cd974      Cd  0.03056600  0.00315402  0.99997089     1.59900
O975        O  0.96505156  0.97536683  0.00292417    -0.80300
O976        O  0.04697062  0.02772495  0.99057373    -0.79000
C977        C  0.96709508  0.02865170  0.96487289     0.83600
C978        C  0.98177596  0.04838888  0.03737479     0.83200
O979        O  0.02311987  0.05004698  0.98607825    -0.77900
C980        C  0.03616639  0.98953542  0.04335738     0.84000
O981        O  0.97749206  0.04034880  0.97530508    -0.78000
C982        C  0.96255811  0.97378268  0.02151529     0.84200
C983        C  0.02131446  0.97096896  0.96860924     0.84500
O984        O  0.00257644  0.97326998  0.96967402    -0.80400
O985        O  0.21420812  0.27621311  0.98414795    -0.78000
C986        C  0.20817916  0.31103908  0.03773051     0.83100
O987        O  0.23327061  0.34776178  0.97712218    -0.79100
O988        O  0.27331942  0.32269296  0.03711667    -0.80600
O989        O  0.27556412  0.26630281  0.00536377    -0.80400
O990        O  0.24287874  0.26780072  0.97013279    -0.79000
Zn991      Zn  0.21957814  0.30324151  0.99519373     1.55700
O992        O  0.26242178  0.27446279  0.03445603    -0.80400
Cd993      Cd  0.26256108  0.28574591  0.98539041     1.59700
Cd994      Cd  0.25627387  0.33326268  0.99211777     1.59600
O995        O  0.28383444  0.29849666  0.96672624    -0.80400
O996        O  0.24743450  0.30631666  0.99996288    -1.90900
Cd997      Cd  0.25191599  0.30285953  0.02853233     1.59900
O998        O  0.27929586  0.33077191  0.97201672    -0.80300
O999        O  0.22604026  0.30998323  0.04380001    -0.79000
C1000       C  0.21673112  0.34095444  0.97089599     0.83600
C1001       C  0.22456463  0.26464359  0.97353319     0.83200
O1002       O  0.20359069  0.30768447  0.01985319    -0.77900
C1003       C  0.27262136  0.26285194  0.02364415     0.84000
O1004       O  0.21045463  0.32390518  0.97590097    -0.78000
C1005       C  0.28831628  0.31659459  0.96349677     0.84200
C1006       C  0.27632929  0.34053939  0.03188630     0.84500
O1007       O  0.26821644  0.34811861  0.01657518    -0.80400
O1008       O  0.76655762  0.48935564  0.71546587    -0.78000
C1009       C  0.80223079  0.54398375  0.71133022     0.83100
O1010       O  0.83794787  0.48314620  0.73676927    -0.79100
O1011       O  0.81130066  0.54322585  0.77533585    -0.80600
O1012       O  0.75532466  0.51048519  0.77770362    -0.80400
O1013       O  0.75634718  0.47598629  0.74386821    -0.79000
Zn1014     Zn  0.79377286  0.50061212  0.72188998     1.55700
O1015       O  0.76329069  0.53976935  0.76454946    -0.80400
Cd1016     Cd  0.77453014  0.49050553  0.76421845     1.59700
Cd1017     Cd  0.82247126  0.49818673  0.75892082     1.59600
O1018       O  0.78735006  0.47124755  0.78520464    -0.80400
O1019       O  0.79548028  0.50547058  0.74965359    -1.90900
Cd1020     Cd  0.79156221  0.53419405  0.75405379     1.59900
O1021       O  0.81953553  0.47778812  0.78123910    -0.80300
O1022       O  0.79824102  0.55027091  0.72858722    -0.79000
C1023       C  0.83159030  0.47644912  0.72032504     0.83600
C1024       C  0.75414252  0.47909541  0.72539857     0.83200
O1025       O  0.80061815  0.52573142  0.70689148    -0.77900
C1026       C  0.75183200  0.52883742  0.77481985     0.84000
O1027       O  0.81456831  0.48103494  0.71365065    -0.78000
C1028       C  0.80554729  0.46853986  0.78980911     0.84200
C1029       C  0.82910026  0.53818192  0.77901589     0.84500
O1030       O  0.83692163  0.52267292  0.77155326    -0.80400
O1031       O  0.97434106  0.21089059  0.80024045    -0.78000
C1032       C  0.02075674  0.22840910  0.75397864     0.83100
O1033       O  0.01686268  0.23876515  0.83785287    -0.79100
O1034       O  0.03118325  0.28696244  0.78867230    -0.80600
O1035       O  0.96283967  0.26978577  0.76260956    -0.80400
O1036       O  0.95004422  0.23293676  0.79673410    -0.79000
Zn1037     Zn  0.99966368  0.22509833  0.79341858     1.55700
O1038       O  0.99298701  0.28202428  0.75655669    -0.80400
Cd1039     Cd  0.96688517  0.25839649  0.79096339     1.59700
Cd1040     Cd  0.00256175  0.26157420  0.82261770     1.59600
O1041       O  0.95838516  0.27981501  0.81105883    -0.80400
O1042       O  0.99536531  0.25288326  0.79560680    -1.90900
Cd1043     Cd  0.01159331  0.26691335  0.77554442     1.59900
O1044       O  0.97843706  0.27459031  0.83679591    -0.80300
O1045       O  0.02528809  0.24646698  0.75712216    -0.79000
C1046       C  0.02375354  0.22253880  0.83109121     0.83600
C1047       C  0.95610216  0.21558432  0.80117094     0.83200
O1048       O  0.00986599  0.21859937  0.76591251    -0.77900
C1049       C  0.97474718  0.28003127  0.75210068     0.84000
O1050       O  0.01938241  0.21636699  0.81388987    -0.78000
C1051       C  0.96351975  0.28310422  0.82886334     0.84200
C1052       C  0.03303437  0.29208568  0.80669793     0.84500
O1053       O  0.02307352  0.28397087  0.82043996    -0.80400
C1054       C  0.84660883  0.36231733  0.92162914     0.87000
C1055       C  0.85726807  0.37814210  0.93401448    -0.53200
C1056       C  0.87034704  0.38957852  0.92344300     0.10000
C1057       C  0.87101251  0.38420672  0.90129232     0.20900
C1058       C  0.83667974  0.37402902  0.90483741    -0.53900
C1059       C  0.84936695  0.38549410  0.89405721     0.10100
C1060       C  0.86336100  0.35073483  0.91178738    -0.53500
C1061       C  0.87607654  0.36210832  0.90120321     0.10600
H1062       H  0.85512630  0.37955473  0.94978820     0.15100
H1063       H  0.88156092  0.39301468  0.89245402     0.00900
H1064       H  0.82099110  0.37339451  0.90176380     0.15400
H1065       H  0.86501720  0.33479600  0.91306017     0.15200
C1066       C  0.14283856  0.42325523  0.83877213     0.87000
C1067       C  0.13061907  0.40644309  0.82985662    -0.53200
C1068       C  0.11987716  0.39581684  0.84327900     0.10000
C1069       C  0.12248504  0.40329419  0.86471137     0.20900
C1070       C  0.12764419  0.43589652  0.85005202    -0.53900
C1071       C  0.11712263  0.42548354  0.86387368     0.10100
C1072       C  0.15545566  0.41347569  0.85477232    -0.53500
C1073       C  0.14497103  0.40313105  0.86850609     0.10600
H1074       H  0.13045421  0.40344925  0.81417573     0.15100
H1075       H  0.11393287  0.39497112  0.87590909     0.00900
H1076       H  0.12598654  0.45172305  0.84793308     0.15400
H1077       H  0.17145946  0.41485801  0.85512371     0.15200
C1078       C  0.91861748  0.66452574  0.85050130     0.87000
C1079       C  0.90126219  0.67423819  0.86160806    -0.53200
C1080       C  0.89099541  0.66141386  0.87340369     0.10000
C1081       C  0.89880907  0.64002636  0.87274468     0.20900
C1082       C  0.93123781  0.65467127  0.86668159    -0.53900
C1083       C  0.92089376  0.64168410  0.87828077     0.10100
C1084       C  0.90921772  0.64728631  0.83926460    -0.53500
C1085       C  0.89891132  0.63446677  0.85077900     0.10600
H1086       H  0.89760415  0.68982199  0.86072874     0.15100
H1087       H  0.89024072  0.62959555  0.88207908     0.00900
H1088       H  0.94703723  0.65716927  0.86825856     0.15400
H1089       H  0.91059007  0.64536877  0.82342539     0.15200
C1090       C  0.08066118  0.35260077  0.14623180     0.87000
C1091       C  0.06852409  0.36594447  0.13234401    -0.53200
C1092       C  0.07967313  0.37954123  0.12217465     0.10000
C1093       C  0.10199450  0.37839193  0.12709475     0.20900
C1094       C  0.09637773  0.34320948  0.13285605    -0.53900
C1095       C  0.10759218  0.35672411  0.12288452     0.10100
C1096       C  0.09198094  0.36692979  0.15946472    -0.53500
C1097       C  0.10289730  0.38066952  0.14963281     0.10600
H1098       H  0.05259162  0.36465882  0.13090704     0.15100
H1099       H  0.11131095  0.38917657  0.11904180     0.00900
H1100       H  0.09839953  0.32738829  0.13116931     0.15400
H1101       H  0.09084569  0.36651178  0.17542469     0.15200
C1102       C  0.85134357  0.58923512  0.14998389     0.87000
C1103       C  0.86665815  0.57645501  0.13920338    -0.53200
C1104       C  0.87800294  0.58668115  0.12588403     0.10000
C1105       C  0.87286581  0.60897550  0.12482593     0.20900
C1106       C  0.86346236  0.60594836  0.15932515    -0.53900
C1107       C  0.87487003  0.61638313  0.14631372     0.10100
C1108       C  0.83940350  0.59913809  0.13357495    -0.53500
C1109       C  0.85050108  0.60932692  0.12023336     0.10600
H1110       H  0.86812261  0.56068971  0.14181685     0.15100
H1111       H  0.88163614  0.61742762  0.11394578     0.00900
H1112       H  0.86338471  0.60897378  0.17495582     0.15400
H1113       H  0.82341673  0.59781375  0.13245311     0.15200
C1114       C  0.15853822  0.65593764  0.08311771     0.87000
C1115       C  0.16838549  0.64486750  0.10038586    -0.53200
C1116       C  0.15549108  0.63339761  0.11093920     0.10000
C1117       C  0.13397997  0.63425295  0.10352159     0.20900
C1118       C  0.14824439  0.63973516  0.07097658    -0.53900
C1119       C  0.13520280  0.62853842  0.08160241     0.10100
C1120       C  0.14158788  0.66759333  0.09266374    -0.53500
C1121       C  0.12878440  0.65635444  0.10331042     0.10600
H1122       H  0.18403079  0.64555708  0.10386860     0.15100
H1123       H  0.12349538  0.62507992  0.11222850     0.00900
H1124       H  0.15024497  0.63806429  0.05518939     0.15400
H1125       H  0.13987954  0.68350585  0.09116539     0.15200
O1126       O  0.02587421  0.55135673  0.01542523    -0.78000
C1127       C  0.98333957  0.55172502  0.96530240     0.83100
O1128       O  0.97091151  0.51060395  0.03527472    -0.79100
O1129       O  0.97560490  0.48714888  0.96690730    -0.80600
O1130       O  0.04398538  0.49227870  0.97566234    -0.80400
O1131       O  0.04938879  0.52885092  0.01005670    -0.79000
Zn1132     Zn  0.00034556  0.53951198  0.00536575     1.55700
O1133       O  0.02110799  0.49914207  0.95290850    -0.80400
Cd1134     Cd  0.03272550  0.50444326  0.00143089     1.59700
Cd1135     Cd  0.98731695  0.49383436  0.01508187     1.59600
O1136       O  0.03593624  0.48296681  0.02302316    -0.80400
O1137       O  0.00420349  0.51184947  0.99818877    -1.90900
Cd1138     Cd  0.99713078  0.50854460  0.96979657     1.59900
O1139       O  0.00514095  0.47405854  0.03098615    -0.80300
O1140       O  0.98502130  0.53427926  0.95846737    -0.79000
C1141       C  0.97032246  0.52929128  0.03792018     0.83600
C1142       C  0.04390383  0.54584453  0.01607697     0.83200
O1143       O  0.98945347  0.55621900  0.98251695    -0.77900
C1144       C  0.03785154  0.49196167  0.95788861     0.84000
O1145       O  0.98066385  0.54114842  0.02755260    -0.78000
C1146       C  0.02388819  0.47217975  0.03269758     0.84200
C1147       C  0.96550797  0.47655169  0.97874834     0.84500
O1148       O  0.96785504  0.47744611  0.99741476    -0.80400
O1149       O  0.52453111  0.80375891  0.30019778    -0.78000
C1150       C  0.47797166  0.78388901  0.25566640     0.83100
O1151       O  0.48386914  0.77512232  0.33966826    -0.79100
O1152       O  0.47006952  0.72539100  0.29062958    -0.80600
O1153       O  0.53874556  0.74502016  0.26502596    -0.80400
O1154       O  0.54930664  0.78205523  0.29932183    -0.79000
Zn1155     Zn  0.49983771  0.78814117  0.29459869     1.55700
O1156       O  0.50939766  0.73136680  0.25808627    -0.80400
Cd1157     Cd  0.53366373  0.75595721  0.29333346     1.59700
Cd1158     Cd  0.49766270  0.75194065  0.32451590     1.59600
O1159       O  0.54278326  0.73475934  0.31350088    -0.80400
O1160       O  0.50490749  0.76043126  0.29730725    -1.90900
Cd1161     Cd  0.48963420  0.74552048  0.27698630     1.59900
O1162       O  0.52199742  0.73898076  0.33878941    -0.80300
O1163       O  0.47507480  0.76537958  0.25819094    -0.79000
C1164       C  0.47688924  0.79124760  0.33265257     0.83600
C1165       C  0.54279083  0.79955409  0.30217345     0.83200
O1166       O  0.48821907  0.79407483  0.26777280    -0.77900
C1167       C  0.52763359  0.73439244  0.25405569     0.84000
O1168       O  0.48078849  0.79699463  0.31521464    -0.78000
C1169       C  0.53744643  0.73117317  0.33118027     0.84200
C1170       C  0.46710486  0.72127251  0.30882770     0.84500
O1171       O  0.47649545  0.72995367  0.32263043    -0.80400
O1172       O  0.51418415  0.22192773  0.73373467    -0.78000
C1173       C  0.45968436  0.21604918  0.69920856     0.83100
O1174       O  0.52201627  0.23999863  0.66208859    -0.79100
O1175       O  0.46085956  0.27917442  0.68540264    -0.80600
O1176       O  0.49486600  0.28395103  0.74245967    -0.80400
O1177       O  0.52908324  0.25039947  0.74139653    -0.79000
Zn1178     Zn  0.50332809  0.22688029  0.70613926     1.55700
O1179       O  0.46494627  0.27241716  0.73439376    -0.80400
Cd1180     Cd  0.51397971  0.26986852  0.72301572     1.59700
Cd1181     Cd  0.50617609  0.26285809  0.67573975     1.59600
O1182       O  0.53257131  0.29058499  0.70939756    -0.80400
O1183       O  0.49860405  0.25467779  0.70296181    -1.90900
Cd1184     Cd  0.46992023  0.25956762  0.70693640     1.59900
O1185       O  0.52560070  0.28651399  0.67745682    -0.80300
O1186       O  0.45356194  0.23356531  0.70268675    -0.79000
C1187       C  0.52856981  0.22371577  0.66918555     0.83600
C1188       C  0.52515327  0.23229710  0.74509123     0.83200
O1189       O  0.47802488  0.21163112  0.70021153    -0.77900
C1190       C  0.47635747  0.28220814  0.74579929     0.84000
O1191       O  0.52342817  0.21754567  0.68619754    -0.78000
C1192       C  0.53477604  0.29538155  0.69128610     0.84200
C1193       C  0.46590000  0.28159846  0.66745021     0.84500
O1194       O  0.48146153  0.27363636  0.66022399    -0.80400
O1195       O  0.70050734  0.98483041  0.79248712    -0.78000
C1196       C  0.74742843  0.02916925  0.77391227     0.83100
O1197       O  0.66339488  0.02862577  0.76374411    -0.79100
O1198       O  0.71332756  0.04087176  0.71535170    -0.80600
O1199       O  0.73513412  0.97069769  0.73320267    -0.80400
O1200       O  0.70264158  0.96021497  0.77090037    -0.79000
Zn1201     Zn  0.70706957  0.00986009  0.77764987     1.55700
O1202       O  0.74307657  0.99983016  0.71971106    -0.80400
Cd1203     Cd  0.70786161  0.97668112  0.74535197     1.59700
Cd1204     Cd  0.67794237  0.01379206  0.74093360     1.59600
O1205       O  0.68721572  0.96830628  0.72480805    -0.80400
O1206       O  0.70471389  0.00546360  0.74986321    -1.90900
Cd1207     Cd  0.72573530  0.02003968  0.73508449     1.59900
O1208       O  0.66249130  0.98997734  0.72830747    -0.80300
O1209       O  0.74528194  0.03245844  0.75546426    -0.79000
C1210       C  0.67003727  0.03495472  0.78022334     0.83600
C1211       C  0.69915184  0.96654635  0.78823825     0.83200
O1212       O  0.73460899  0.01960717  0.78392448    -0.77900
C1213       C  0.74606407  0.98133269  0.72213090     0.84000
O1214       O  0.68705218  0.02998079  0.78666879    -0.78000
C1215       C  0.66973440  0.97417794  0.72090675     0.84200
C1216       C  0.69523564  0.04390318  0.71055204     0.84500
O1217       O  0.68105501  0.03452034  0.71869991    -0.80400
C1218       C  0.35082725  0.08745111  0.65762668     0.87000
C1219       C  0.36698802  0.07547393  0.64701673    -0.53200
C1220       C  0.37750727  0.08623189  0.63350371     0.10000
C1221       C  0.37115251  0.10807450  0.63217234     0.20900
C1222       C  0.36182630  0.10516773  0.66679715    -0.53900
C1223       C  0.37266557  0.11585996  0.65349264     0.10100
C1224       C  0.33835617  0.09649000  0.64106434    -0.53500
C1225       C  0.34881485  0.10711575  0.62758291     0.10600
H1226       H  0.36914128  0.05971527  0.64925520     0.15100
H1227       H  0.37981675  0.11687908  0.62138020     0.00900
H1228       H  0.36175546  0.10862837  0.68238846     0.15400
H1229       H  0.32244652  0.09441479  0.64010929     0.15200
C1230       C  0.58326110  0.84911299  0.64483568     0.87000
C1231       C  0.57074481  0.85896782  0.62851950    -0.53200
C1232       C  0.58105575  0.87266142  0.61770931     0.10000
C1233       C  0.60296427  0.87467684  0.62378671     0.20900
C1234       C  0.60108653  0.84023701  0.63400966    -0.53900
C1235       C  0.61144597  0.85352671  0.62295204     0.10100
C1236       C  0.59165125  0.86643819  0.65675219    -0.53500
C1237       C  0.60194614  0.87980196  0.64578986     0.10600
H1238       H  0.55503171  0.85640422  0.62647883     0.15100
H1239       H  0.61144084  0.88561020  0.61494304     0.00900
H1240       H  0.60495048  0.82466923  0.63482592     0.15400
H1241       H  0.58961000  0.86798102  0.67255606     0.15200
C1242       C  0.65822986  0.15266898  0.57913140     0.87000
C1243       C  0.66782271  0.14057115  0.59583745    -0.53200
C1244       C  0.65466785  0.13004562  0.60707554     0.10000
C1245       C  0.63291028  0.13266641  0.60026235     0.20900
C1246       C  0.64629737  0.13745551  0.56722246    -0.53900
C1247       C  0.63282377  0.12697873  0.57817323     0.10100
C1248       C  0.64258908  0.16544041  0.58927373    -0.53500
C1249       C  0.62919979  0.15516068  0.60026067     0.10600
H1250       H  0.68363716  0.14016584  0.59833942     0.15100
H1251       H  0.62196094  0.12445463  0.60918902     0.00900
H1252       H  0.64818062  0.13556033  0.55146933     0.15400
H1253       H  0.64216746  0.18141518  0.58767180     0.15200
C1254       C  0.34456251  0.86161348  0.41742594     0.87000
C1255       C  0.35496132  0.87781766  0.42932687    -0.53200
C1256       C  0.36849040  0.88837598  0.41869835     0.10000
C1257       C  0.37011316  0.88199973  0.39694888     0.20900
C1258       C  0.33537813  0.87254807  0.39979113    -0.53900
C1259       C  0.34867721  0.88335232  0.38894282     0.10100
C1260       C  0.36127252  0.84923112  0.40856236    -0.53500
C1261       C  0.37473760  0.85972846  0.39791448     0.10600
H1262       H  0.35252357  0.88008700  0.44497856     0.15100
H1263       H  0.38122957  0.89061572  0.38855194     0.00900
H1264       H  0.31973575  0.87215422  0.39642878     0.15400
H1265       H  0.36225335  0.83333218  0.41062794     0.15200
C1266       C  0.64932536  0.92732099  0.34814524     0.87000
C1267       C  0.63733710  0.91045519  0.33870598    -0.53200
C1268       C  0.62577193  0.90037220  0.35172714     0.10000
C1269       C  0.62728256  0.90781872  0.37300935     0.20900
C1270       C  0.63380168  0.94028135  0.35871771    -0.53900
C1271       C  0.62222553  0.93004275  0.37191562     0.10100
C1272       C  0.66091878  0.91748082  0.36482230    -0.53500
C1273       C  0.64949957  0.90732927  0.37787947     0.10600
H1274       H  0.63749905  0.90689231  0.32314156     0.15100
H1275       H  0.61820356  0.89912930  0.38348866     0.00900
H1276       H  0.63247028  0.95607297  0.35619989     0.15400
H1277       H  0.67692418  0.91842134  0.36603405     0.15200
C1278       C  0.41781453  0.16372814  0.35484890     0.87000
C1279       C  0.40150617  0.17371820  0.36711038    -0.53200
C1280       C  0.39081128  0.16079287  0.37835246     0.10000
C1281       C  0.39727551  0.13902105  0.37618150     0.20900
C1282       C  0.43028074  0.15201303  0.36977474    -0.53900
C1283       C  0.41970314  0.13878464  0.38089501     0.10100
C1284       C  0.40701536  0.14793597  0.34284759    -0.53500
C1285       C  0.39628841  0.13502779  0.35389042     0.10600
H1286       H  0.39860477  0.18948603  0.36711353     0.15100
H1287       H  0.38821103  0.12855548  0.38494422     0.00900
H1288       H  0.44621963  0.15365958  0.37078430     0.15400
H1289       H  0.40791477  0.14693351  0.32688865     0.15200
O1290       O  0.51224327  0.96229603  0.51912759    -0.78000
C1291       C  0.45949063  0.97114328  0.48414938     0.83100
O1292       O  0.53177023  0.00654246  0.46537890    -0.79100
O1293       O  0.46638917  0.03389986  0.47736559    -0.80600
O1294       O  0.48099291  0.01983570  0.54709313    -0.80400
O1295       O  0.51621921  0.98457438  0.54297008    -0.79000
Zn1296     Zn  0.50270318  0.97825473  0.49547294     1.55700
O1297       O  0.45757821  0.02431191  0.52432762    -0.80400
Cd1298     Cd  0.50517667  0.01020343  0.53061078     1.59700
Cd1299     Cd  0.51505860  0.02373612  0.48496062     1.59600
O1300       O  0.52715281  0.03124668  0.53307423    -0.80400
O1301       O  0.49838052  0.00594900  0.50224376    -1.90900
Cd1302     Cd  0.46971121  0.01258548  0.49886421     1.59900
O1303       O  0.53455117  0.04052576  0.50233641    -0.80300
O1304       O  0.45355106  0.98801446  0.49001478    -0.79000
C1305       C  0.53305699  0.98782545  0.46315501     0.83600
C1306       C  0.51754727  0.96695661  0.53654791     0.83200
O1307       O  0.47760603  0.96602209  0.48513394    -0.77900
C1308       C  0.46374043  0.02557830  0.54202522     0.84000
O1309       O  0.52305020  0.97585206  0.47372683    -0.78000
C1310       C  0.53720508  0.04158950  0.52097072     0.84200
C1311       C  0.47809259  0.04457243  0.46717339     0.84500
O1312       O  0.49690695  0.04291056  0.46847081    -0.80400
C1313       C  0.46578676  0.08293666  0.43254225     0.20900
C1314       C  0.46901442  0.09852751  0.41916743    -0.39000
C1315       C  0.45190931  0.10704755  0.41087895     0.19900
C1316       C  0.43308470  0.10049801  0.41548034     0.22500
C1317       C  0.42985953  0.08491630  0.42878856    -0.39500
C1318       C  0.44690380  0.07647453  0.43712832     0.21300
N1319       N  0.47948024  0.07242639  0.44255137    -0.32800
C1320       C  0.46917630  0.05920716  0.45359294    -0.10300
C1321       C  0.44883779  0.06133927  0.45057824    -0.29100
N1322       N  0.41930298  0.11099214  0.40567799    -0.45700
C1323       C  0.42932188  0.12447000  0.39468263    -0.05000
C1324       C  0.44976704  0.12236774  0.39758477    -0.22400
H1325       H  0.48373205  0.10369050  0.41553297     0.19400
H1326       H  0.41513712  0.07977860  0.43244353     0.18200
H1327       H  0.43702342  0.05292890  0.45736077     0.14500
H1328       H  0.46159911  0.13073263  0.39081642     0.14400
H1329       H  0.49482904  0.07418521  0.44197169     0.32500
H1330       H  0.40402161  0.10893637  0.40652293     0.35300
C1331       C  0.56178316  0.95815957  0.43007841     0.20900
C1332       C  0.56884691  0.94059100  0.42167107    -0.39000
C1333       C  0.58352758  0.94281253  0.40723218     0.19900
C1334       C  0.59069108  0.96109764  0.40153898     0.22500
C1335       C  0.58358874  0.97873270  0.40995498    -0.39500
C1336       C  0.56884033  0.97652959  0.42443921     0.21300
N1337       N  0.54815228  0.95992554  0.44437731    -0.32800
C1338       C  0.54642813  0.97957138  0.44798910    -0.10300
C1339       C  0.55907359  0.99043236  0.43576660    -0.29100
N1340       N  0.60502737  0.95906561  0.38788651    -0.45700
C1341       C  0.60705500  0.93929292  0.38491020    -0.05000
C1342       C  0.59375495  0.92876882  0.39672734    -0.22400
H1343       H  0.56346270  0.92620875  0.42620560     0.19400
H1344       H  0.58925936  0.99308352  0.40569096     0.18200
H1345       H  0.56103170  0.00631041  0.43539763     0.14500
H1346       H  0.59181889  0.91293934  0.39782677     0.14400
H1347       H  0.54058938  0.94841256  0.45138058     0.32500
H1348       H  0.61322660  0.97044964  0.38143775     0.35300
C1349       C  0.41786569  0.94443102  0.46550764     0.20900
C1350       C  0.39785666  0.93938133  0.46291343    -0.39000
C1351       C  0.39400648  0.92509853  0.44840241     0.19900
C1352       C  0.40890790  0.91683948  0.43709584     0.22500
C1353       C  0.42888685  0.92160715  0.43994805    -0.39500
C1354       C  0.43276078  0.93555059  0.45467994     0.21300
N1355       N  0.42544944  0.95799000  0.47787796    -0.32800
C1356       C  0.44531202  0.95745527  0.47503516    -0.10300
C1357       C  0.45042407  0.94352099  0.46083483    -0.29100
N1358       N  0.40149733  0.90356474  0.42439649    -0.45700
C1359       C  0.38179392  0.90296509  0.42792771    -0.05000
C1360       C  0.37651934  0.91619287  0.44279969    -0.22400
H1361       H  0.38618275  0.94600061  0.47159188     0.19400
H1362       H  0.44057649  0.91489458  0.43136131     0.18200
H1363       H  0.46503632  0.94032302  0.45513986     0.14500
H1364       H  0.36195610  0.91858033  0.44898446     0.14400
H1365       H  0.41761917  0.96722187  0.48741396     0.32500
H1366       H  0.40947446  0.89470659  0.41462871     0.35300
C1367       C  0.60056007  0.09747631  0.54772947     0.20900
C1368       C  0.59158194  0.09102323  0.53015724    -0.39000
C1369       C  0.57643679  0.07693054  0.53230761     0.19900
C1370       C  0.57070514  0.06989314  0.55059368     0.22500
C1371       C  0.57962808  0.07637843  0.56813745    -0.39500
C1372       C  0.59476457  0.09043369  0.56597181     0.21300
N1373       N  0.61507476  0.11095493  0.54967630    -0.32800
C1374       C  0.61856348  0.11264924  0.56934186    -0.10300
C1375       C  0.60613579  0.09996208  0.57994269    -0.29100
N1376       N  0.55606277  0.05659208  0.54875329    -0.45700
C1377       C  0.55235841  0.05504242  0.52915931    -0.05000
C1378       C  0.56479043  0.06754495  0.51838411    -0.22400
H1379       H  0.59604694  0.09658853  0.51587053     0.19400
H1380       H  0.57507132  0.07091550  0.58243666     0.18200
H1381       H  0.60528884  0.09800890  0.59574123     0.14500
H1382       H  0.56528614  0.06945275  0.50255302     0.14400
H1383       H  0.62177574  0.11882416  0.53823815     0.32500
H1384       H  0.54904416  0.04895869  0.56018390     0.35300
C1385       C  0.55041840  0.90030888  0.58433041     0.20900
C1386       C  0.53488784  0.90397213  0.57098477    -0.39000
C1387       C  0.53332193  0.92354382  0.56410150     0.19900
C1388       C  0.54592177  0.93835495  0.57050285     0.22500
C1389       C  0.56153202  0.93465059  0.58359546    -0.39500
C1390       C  0.56339730  0.91506205  0.59003931     0.21300
N1391       N  0.55510479  0.88307121  0.59315958    -0.32800
C1392       C  0.57138792  0.88691746  0.60424340    -0.10300
C1393       C  0.57699352  0.90667576  0.60258820    -0.29100
N1394       N  0.54141820  0.95566645  0.56191773    -0.45700
C1395       C  0.52615759  0.95184687  0.54956065    -0.05000
C1396       C  0.52064757  0.93196639  0.55045481    -0.22400
H1397       H  0.52491626  0.89242582  0.56616730     0.19400
H1398       H  0.57161716  0.94615778  0.58828056     0.18200
H1399       H  0.58898873  0.91410126  0.61013431     0.14500
H1400       H  0.50905121  0.92469048  0.54218667     0.14400
H1401       H  0.54770077  0.86958855  0.59176898     0.32500
H1402       H  0.54871516  0.96914821  0.56383214     0.35300
C1403       C  0.41340833  0.05746124  0.60708855     0.20900
C1404       C  0.42725907  0.04228392  0.60379940    -0.39000
C1405       C  0.43520693  0.04136580  0.58466978     0.19900
C1406       C  0.42943188  0.05431640  0.56990954     0.22500
C1407       C  0.41591126  0.06966377  0.57329376    -0.39500
C1408       C  0.40828482  0.07080344  0.59245187     0.21300
N1409       N  0.40329845  0.06125669  0.62375454    -0.32800
C1410       C  0.39192578  0.07732073  0.61971232    -0.10300
C1411       C  0.39474104  0.08371726  0.60037488    -0.29100
N1412       N  0.43858170  0.05003233  0.55288910    -0.45700
C1413       C  0.45061572  0.03449830  0.55685225    -0.05000
C1414       C  0.44903272  0.02870292  0.57655672    -0.22400
H1415       H  0.43147304  0.03192719  0.61524237     0.19400
H1416       H  0.41156681  0.07992237  0.56180894     0.18200
H1417       H  0.38732334  0.09576542  0.59287436     0.14500
H1418       H  0.45676528  0.01673054  0.58385550     0.14400
H1419       H  0.40405792  0.05340321  0.63700811     0.32500
H1420       H  0.43703128  0.05745880  0.53945698     0.35300
C1421       C  0.67161351  0.07507837  0.67474472     0.20900
C1422       C  0.65555463  0.08252509  0.66385426    -0.39000
C1423       C  0.66024924  0.09620809  0.64901477     0.19900
C1424       C  0.67947815  0.10208480  0.64532643     0.22500
C1425       C  0.69561188  0.09464254  0.65627975    -0.39500
C1426       C  0.69092016  0.08084677  0.67114384     0.21300
N1427       N  0.67094567  0.06156240  0.68924336    -0.32800
C1428       C  0.68992550  0.05847655  0.69505333    -0.10300
C1429       C  0.70289110  0.07032585  0.68410161    -0.29100
N1430       N  0.67998775  0.11493749  0.63014543    -0.45700
C1431       C  0.66092036  0.11726748  0.62401007    -0.05000
C1432       C  0.64821971  0.10577695  0.63557847    -0.22400
H1433       H  0.64049366  0.07781290  0.66659651     0.19400
H1434       H  0.71070500  0.09908562  0.65328788     0.18200
H1435       H  0.71885664  0.07094938  0.68525518     0.14500
H1436       H  0.63233471  0.10430344  0.63430519     0.14400
H1437       H  0.65825830  0.05461806  0.69469318     0.32500
H1438       H  0.69268787  0.12150075  0.62432531     0.35300
C1439       C  0.63422598  0.94622860  0.69344280     0.20900
C1440       C  0.61599548  0.93703549  0.68951363    -0.39000
C1441       C  0.61622131  0.92262912  0.67461215     0.19900
C1442       C  0.63319184  0.91805100  0.66412491     0.22500
C1443       C  0.65141263  0.92702903  0.66822536    -0.39500
C1444       C  0.65126768  0.94109283  0.68335012     0.21300
N1445       N  0.63831661  0.95942604  0.70773536    -0.32800
C1446       C  0.65816610  0.96227617  0.70691411    -0.10300
C1447       C  0.66668904  0.95113397  0.69190043    -0.29100
N1448       N  0.62986546  0.90305792  0.65159111    -0.45700
C1449       C  0.61081200  0.89766323  0.65450157    -0.05000
C1450       C  0.60175128  0.90958882  0.66862969    -0.22400
H1451       H  0.60280362  0.94029104  0.69794116     0.19400
H1452       H  0.66488529  0.92281664  0.66070538     0.18200
H1453       H  0.68222097  0.95010974  0.68812737     0.14500
H1454       H  0.58687987  0.90824352  0.67439831     0.14400
H1455       H  0.62844516  0.96534750  0.71798263     0.32500
H1456       H  0.64024891  0.89602705  0.64261636     0.35300
C1457       C  0.39699489  0.15811262  0.67462700     0.20900
C1458       C  0.39903008  0.17516947  0.68634718    -0.39000
C1459       C  0.41812726  0.18348391  0.68716162     0.19900
C1460       C  0.43399025  0.17517400  0.67731377     0.22500
C1461       C  0.43186547  0.15841856  0.66526370    -0.39500
C1462       C  0.41274256  0.15032964  0.66417854     0.21300
N1463       N  0.38063249  0.14702155  0.67198593    -0.32800
C1464       C  0.38590049  0.13231156  0.65946262    -0.10300
C1465       C  0.40578291  0.13396577  0.65416430    -0.29100
N1466       N  0.45068099  0.18540182  0.68088876    -0.45700
C1467       C  0.44550230  0.20060008  0.69284066    -0.05000
C1468       C  0.42522430  0.19999612  0.69697527    -0.22400
H1469       H  0.38668670  0.18141950  0.69435245     0.19400
H1470       H  0.44424964  0.15205616  0.65740668     0.18200
H1471       H  0.41418060  0.12405625  0.64487026     0.14500
H1472       H  0.41684773  0.21019648  0.70596540     0.14400
H1473       H  0.36675304  0.14922843  0.67838076     0.32500
H1474       H  0.46472214  0.18248604  0.67515244     0.35300
C1475       C  0.58882405  0.17156473  0.63070396     0.20900
C1476       C  0.57550590  0.17126147  0.64663008    -0.39000
C1477       C  0.56343780  0.18810431  0.64866119     0.19900
C1478       C  0.56448075  0.20394115  0.63573882     0.22500
C1479       C  0.57782731  0.20427381  0.61992270    -0.39500
C1480       C  0.58994140  0.18754663  0.61799089     0.21300
N1481       N  0.60232985  0.15772483  0.62586945    -0.32800
C1482       C  0.61227327  0.16510245  0.61010602    -0.10300
C1483       C  0.60482412  0.18364181  0.60476222    -0.29100
N1484       N  0.55186534  0.21834960  0.64107741    -0.45700
C1485       C  0.54276407  0.21179160  0.65764169    -0.05000
C1486       C  0.54958846  0.19294274  0.66281677    -0.22400
H1487       H  0.57480542  0.15897473  0.65685636     0.19400
H1488       H  0.57893493  0.21679969  0.61002385     0.18200
H1489       H  0.60970227  0.19314078  0.59286727     0.14500
H1490       H  0.54529374  0.18415305  0.67545998     0.14400
H1491       H  0.60498563  0.14439767  0.63321463     0.32500
H1492       H  0.54995967  0.23204122  0.63417087     0.35300
C1493       C  0.56620063  0.84174709  0.32374626     0.20900
C1494       C  0.56713551  0.85942496  0.33454927    -0.39000
C1495       C  0.58621460  0.86678236  0.33816530     0.19900
C1496       C  0.60303083  0.85740813  0.33121314     0.22500
C1497       C  0.60210241  0.83952910  0.32075276    -0.39500
C1498       C  0.58303258  0.83200317  0.31740125     0.21300
N1499       N  0.54987373  0.83174045  0.31845558    -0.32800
C1500       C  0.55628643  0.81531082  0.30895000    -0.10300
C1501       C  0.57692596  0.81491290  0.30805538    -0.29100
N1502       N  0.61929320  0.86798235  0.33554366    -0.45700
C1503       C  0.61280958  0.88400329  0.34558734    -0.05000
C1504       C  0.59229880  0.88374126  0.34769780    -0.22400
H1505       H  0.55397147  0.86694795  0.33966194     0.19400
H1506       H  0.61525921  0.83209199  0.31550703     0.18200
H1507       H  0.58618763  0.80358193  0.30163031     0.14500
H1508       H  0.58307812  0.89489551  0.35448865     0.14400
H1509       H  0.53524065  0.83556560  0.32163850     0.32500
H1510       H  0.63388960  0.86468575  0.33169181     0.35300
C1511       C  0.44185813  0.81193547  0.36619950     0.20900
C1512       C  0.42820730  0.81182795  0.38173081    -0.39000
C1513       C  0.41551890  0.82820397  0.38264882     0.19900
C1514       C  0.41632568  0.84362274  0.36922774     0.22500
C1515       C  0.42992067  0.84368832  0.35359076    -0.39500
C1516       C  0.44260151  0.82724689  0.35262867     0.21300
N1517       N  0.45471059  0.79752930  0.36143685    -0.32800
C1518       C  0.46353304  0.80359778  0.34455553    -0.10300
C1519       C  0.45648046  0.82213190  0.33871716    -0.29100
N1520       N  0.40223338  0.85715378  0.37310750    -0.45700
C1521       C  0.39228569  0.85013439  0.38900698    -0.05000
C1522       C  0.40024768  0.83215257  0.39536101    -0.22400
H1523       H  0.42723445  0.79967489  0.39209491     0.19400
H1524       H  0.43032215  0.85544235  0.34274274     0.18200
H1525       H  0.46033196  0.83033198  0.32554812     0.14500
H1526       H  0.39543024  0.82302421  0.40756381     0.14400
H1527       H  0.45664357  0.78401151  0.36867031     0.32500
H1528       H  0.39920638  0.86999934  0.36507777     0.35300
C1529       C  0.10921966  0.59337807  0.05179357     0.20900
C1530       C  0.10631576  0.57963135  0.03653702    -0.39000
C1531       C  0.08671995  0.57319104  0.03378293     0.19900
C1532       C  0.07123076  0.58025978  0.04510233     0.22500
C1533       C  0.07419221  0.59365609  0.06055402    -0.39500
C1534       C  0.09377040  0.59976701  0.06355289     0.21300
N1535       N  0.12620506  0.60239078  0.05697599    -0.32800
C1536       C  0.12149609  0.61431854  0.07232736    -0.10300
C1537       C  0.10146736  0.61293315  0.07694821    -0.29100
N1538       N  0.05403133  0.57204031  0.03955681    -0.45700
C1539       C  0.05856928  0.55925717  0.02490625    -0.05000
C1540       C  0.07883500  0.55952197  0.02085935    -0.22400
H1541       H  0.11838972  0.57436245  0.02748948     0.19400
H1542       H  0.06211285  0.59896089  0.06957574     0.18200
H1543       H  0.09343890  0.62123075  0.08797259     0.14500
H1544       H  0.08672890  0.55070930  0.01014504     0.14400
H1545       H  0.14004866  0.60076602  0.05033198     0.32500
H1546       H  0.04014307  0.57438726  0.04589320     0.35300
C1547       C  0.93502551  0.54091118  0.07571434     0.20900
C1548       C  0.91996678  0.53753240  0.08964125    -0.39000
C1549       C  0.91120274  0.55455875  0.09773514     0.19900
C1550       C  0.91700015  0.57342108  0.09235765     0.22500
C1551       C  0.93207534  0.57679165  0.07858114    -0.39500
C1552       C  0.94080564  0.55985201  0.07051995     0.21300
N1553       N  0.94508746  0.52736741  0.06514727    -0.32800
C1554       C  0.95726125  0.53786673  0.05311949    -0.10300
C1555       C  0.95507689  0.55813265  0.05621339    -0.29100
N1556       N  0.90612249  0.58710804  0.10169997    -0.45700
C1557       C  0.89320014  0.57703654  0.11324676    -0.05000
C1558       C  0.89599159  0.55661624  0.11114884    -0.22400
H1559       H  0.91521024  0.52277801  0.09364162     0.19400
H1560       H  0.93646313  0.59155327  0.07419590     0.18200
H1561       H  0.96250660  0.57006003  0.04854460     0.14500
H1562       H  0.88782218  0.54479261  0.11817326     0.14400
H1563       H  0.94342900  0.51202435  0.06572718     0.32500
H1564       H  0.90758294  0.60241606  0.10018921     0.35300
C1565       C  0.04999226  0.40973146  0.08978401     0.20900
C1566       C  0.03263446  0.41649492  0.08051821    -0.39000
C1567       C  0.03501831  0.43237961  0.06734927     0.19900
C1568       C  0.05332854  0.44075814  0.06362513     0.22500
C1569       C  0.07066607  0.43399783  0.07288701    -0.39500
C1570       C  0.06824529  0.41819730  0.08611598     0.21300
N1571       N  0.05165174  0.39498719  0.10301794    -0.32800
C1572       C  0.07114607  0.39399302  0.10788856    -0.10300
C1573       C  0.08192006  0.40833411  0.09757920    -0.29100
N1574       N  0.05165379  0.45577671  0.05072560    -0.45700
C1575       C  0.03211554  0.45714144  0.04626464    -0.05000
C1576       C  0.02125517  0.44273007  0.05632367    -0.22400
H1577       H  0.01830887  0.40996869  0.08346339     0.19400
H1578       H  0.08497187  0.44063876  0.07009279     0.18200
H1579       H  0.09762139  0.41133364  0.09825723     0.14500
H1580       H  0.00543922  0.44025167  0.05574539     0.14400
H1581       H  0.04010462  0.38621382  0.10831270     0.32500
H1582       H  0.06309962  0.46473411  0.04546880     0.35300
C1583       C  0.93613084  0.60345890  0.91164036     0.20900
C1584       C  0.93592914  0.58440911  0.91980263    -0.39000
C1585       C  0.95142090  0.58000394  0.93282255     0.19900
C1586       C  0.96585124  0.59364772  0.93779070     0.22500
C1587       C  0.96620616  0.61271692  0.92937676    -0.39500
C1588       C  0.95085246  0.61700779  0.91596145     0.21300
N1589       N  0.92345873  0.61080315  0.89824983    -0.32800
C1590       C  0.93021711  0.62908899  0.89361907    -0.10300
C1591       C  0.94732957  0.63352074  0.90438390    -0.29100
N1592       N  0.97899217  0.58559780  0.95047677    -0.45700
C1593       C  0.97302827  0.56660264  0.95313568    -0.05000
C1594       C  0.95593875  0.56261479  0.94235698    -0.22400
H1595       H  0.92473093  0.57363627  0.91596099     0.19400
H1596       H  0.97777208  0.62326675  0.93271262     0.18200
H1597       H  0.95613737  0.64686595  0.90363458     0.14500
H1598       H  0.94793444  0.54877283  0.94157200     0.14400
H1599       H  0.91140555  0.60342175  0.89203104     0.32500
H1600       H  0.99152402  0.59236256  0.95645473     0.35300
C1601       C  0.08345070  0.45597103  0.89140184     0.20900
C1602       C  0.07042831  0.47180864  0.89495221    -0.39000
C1603       C  0.06370733  0.47375008  0.91446181     0.19900
C1604       C  0.06979080  0.46107458  0.92932583     0.22500
C1605       C  0.08246091  0.44502436  0.92570109    -0.39500
C1606       C  0.08892475  0.44291048  0.90616305     0.21300
N1607       N  0.09249258  0.45133393  0.87434190    -0.32800
C1608       C  0.10357454  0.43502516  0.87820653    -0.10300
C1609       C  0.10159897  0.42927893  0.89787634    -0.29100
N1610       N  0.06180028  0.46635312  0.94667033    -0.45700
C1611       C  0.05023090  0.48229175  0.94283149    -0.05000
C1612       C  0.05093208  0.48729664  0.92286294    -0.22400
H1613       H  0.06597029  0.48195158  0.88341171     0.19400
H1614       H  0.08707633  0.43499943  0.93728509     0.18200
H1615       H  0.10908610  0.41723525  0.90531717     0.14500
H1616       H  0.04319996  0.49924869  0.91552972     0.14400
H1617       H  0.09130611  0.45887400  0.86094009     0.32500
H1618       H  0.06370741  0.45925363  0.96023119     0.35300
C1619       C  0.92686932  0.44189828  0.96761141     0.20900
C1620       C  0.91134929  0.42853536  0.97133489    -0.39000
C1621       C  0.90202693  0.42054944  0.95459984     0.19900
C1622       C  0.90780004  0.42544806  0.93567209     0.22500
C1623       C  0.92331021  0.43874238  0.93194267    -0.39500
C1624       C  0.93254230  0.44677417  0.94862077     0.21300
N1625       N  0.93796170  0.45169865  0.98090127    -0.32800
C1626       C  0.95071147  0.46294364  0.97024383    -0.10300
C1627       C  0.94777558  0.46020551  0.95006653    -0.29100
N1628       N  0.89693696  0.41562034  0.92230537    -0.45700
C1629       C  0.88407767  0.40418752  0.93266912    -0.05000
C1630       C  0.88680346  0.40700957  0.95294178    -0.22400
H1631       H  0.90686798  0.42464040  0.98615148     0.19400
H1632       H  0.92786147  0.44255488  0.91712264     0.18200
H1633       H  0.95565750  0.46722050  0.93805468     0.14500
H1634       H  0.87914068  0.39975387  0.96493290     0.14400
H1635       H  0.93680950  0.45092930  0.99623250     0.32500
H1636       H  0.89854540  0.41661003  0.90704834     0.35300
C1637       C  0.06878236  0.33106397  0.81069491     0.20900
C1638       C  0.08293325  0.34490325  0.80437988    -0.39000
C1639       C  0.09103137  0.35695763  0.81918248     0.19900
C1640       C  0.08548841  0.35539593  0.83873345     0.22500
C1641       C  0.07138032  0.34156037  0.84504740    -0.39500
C1642       C  0.06330674  0.32950810  0.83029011     0.21300
N1643       N  0.05877278  0.31794005  0.79958684    -0.32800
C1644       C  0.04690736  0.30794881  0.81228577    -0.10300
C1645       C  0.04933298  0.31479750  0.83152217    -0.29100
N1646       N  0.09509918  0.36876541  0.84984312    -0.45700
C1647       C  0.10689814  0.37904475  0.83730187    -0.05000
C1648       C  0.10474268  0.37195858  0.81802420    -0.22400
H1649       H  0.08725020  0.34626159  0.78908027     0.19400
H1650       H  0.06694189  0.34032233  0.86032194     0.18200
H1651       H  0.04180348  0.30971564  0.84466643     0.14500
H1652       H  0.11200087  0.37709907  0.80477503     0.14400
H1653       H  0.05992067  0.31592799  0.78437508     0.32500
H1654       H  0.09344168  0.37080265  0.86498906     0.35300
C1655       C  0.91042448  0.34218892  0.86688756     0.20900
C1656       C  0.91676184  0.33637813  0.84811221    -0.39000
C1657       C  0.93117295  0.32146834  0.84770255     0.19900
C1658       C  0.93902661  0.31320897  0.86468665     0.22500
C1659       C  0.93256503  0.31890229  0.88349546    -0.39500
C1660       C  0.91782979  0.33354031  0.88389608     0.21300
N1661       N  0.89555608  0.35467189  0.87111615    -0.32800
C1662       C  0.89315737  0.35357325  0.89087184    -0.10300
C1663       C  0.90680980  0.34065336  0.89939897    -0.29100
N1664       N  0.95192990  0.29872736  0.86024066    -0.45700
C1665       C  0.95193862  0.29752726  0.84029544    -0.05000
C1666       C  0.93925041  0.31153126  0.83198686    -0.22400
H1667       H  0.91035983  0.34245428  0.83478111     0.19400
H1668       H  0.93800406  0.31187753  0.89678859     0.18200
H1669       H  0.90772325  0.33620039  0.91470579     0.14500
H1670       H  0.93609970  0.31387663  0.81651370     0.14400
H1671       H  0.88660794  0.36230302  0.86109482     0.32500
H1672       H  0.95971390  0.28978324  0.87014255     0.35300
C1673       C  0.83034799  0.43773506  0.82497295     0.20900
C1674       C  0.84683457  0.42984342  0.83487450    -0.39000
C1675       C  0.84261639  0.41734647  0.85084680     0.19900
C1676       C  0.82343769  0.41300382  0.85644331     0.22500
C1677       C  0.80691052  0.42087006  0.84648376    -0.39500
C1678       C  0.81111633  0.43344477  0.83050573     0.21300
N1679       N  0.83052399  0.45043194  0.80976886    -0.32800
C1680       C  0.81130920  0.45440787  0.80545826    -0.10300
C1681       C  0.79867922  0.44399014  0.81806137    -0.29100
N1682       N  0.82338976  0.40109954  0.87233253    -0.45700
C1683       C  0.84269677  0.39781488  0.87702576    -0.05000
C1684       C  0.85511857  0.40773767  0.86382644    -0.22400
H1685       H  0.86185448  0.43340244  0.83060668     0.19400
H1686       H  0.79189745  0.41762361  0.85100354     0.18200
H1687       H  0.78266791  0.44437927  0.81834496     0.14500
H1688       H  0.87112241  0.40804104  0.86367205     0.14400
H1689       H  0.84306312  0.45626870  0.80287965     0.32500
H1690       H  0.81083216  0.39589437  0.87962875     0.35300
C1691       C  0.86462698  0.56749734  0.80509662     0.20900
C1692       C  0.88307072  0.57631144  0.80888394    -0.39000
C1693       C  0.88304036  0.59157748  0.82290240     0.19900
C1694       C  0.86601461  0.59743426  0.83263097     0.22500
C1695       C  0.84754708  0.58889580  0.82856857    -0.39500
C1696       C  0.84753712  0.57382943  0.81439444     0.21300
N1697       N  0.86048658  0.55330609  0.79180664    -0.32800
C1698       C  0.84056450  0.55092892  0.79241735    -0.10300
C1699       C  0.83202670  0.56345062  0.80633736    -0.29100
N1700       N  0.86975780  0.61270472  0.84474289    -0.45700
C1701       C  0.88920848  0.61686249  0.84240296    -0.05000
C1702       C  0.89799960  0.60403342  0.82890766    -0.22400
H1703       H  0.89636587  0.57195051  0.80114190     0.19400
H1704       H  0.83408636  0.59394094  0.83558145     0.18200
H1705       H  0.81646114  0.56508367  0.80973747     0.14500
H1706       H  0.91312554  0.60430612  0.82366829     0.14400
H1707       H  0.87043541  0.54632658  0.78232472     0.32500
H1708       H  0.85952222  0.62055401  0.85319463     0.35300
C1709       C  0.17678214  0.33449913  0.07297914     0.20900
C1710       C  0.17153513  0.34838937  0.08741993    -0.39000
C1711       C  0.15170432  0.34796092  0.09356034     0.19900
C1712       C  0.13820960  0.33454001  0.08603674     0.22500
C1713       C  0.14329862  0.32105987  0.07115826    -0.39500
C1714       C  0.16308561  0.32163865  0.06487524     0.21300
N1715       N  0.19475540  0.33168465  0.06496385    -0.32800
C1716       C  0.19243485  0.31719261  0.05139442    -0.10300
C1717       C  0.17284246  0.31065683  0.05078418    -0.29100
N1718       N  0.12073201  0.33614088  0.09533783    -0.45700
C1719       C  0.12303626  0.35085493  0.10867992    -0.05000
C1720       C  0.14205709  0.35878717  0.10785175    -0.22400
H1721       H  0.18218994  0.35856674  0.09364744     0.19400
H1722       H  0.13271382  0.31068160  0.06514093     0.18200
H1723       H  0.16659252  0.29947261  0.04124331     0.14500
H1724       H  0.14822275  0.37027043  0.11708870     0.14400
H1725       H  0.20767212  0.33959199  0.06803998     0.32500
H1726       H  0.10806454  0.32762185  0.09292597     0.35300
C1727       C  0.17704089  0.38806296  0.90789143     0.20900
C1728       C  0.19450472  0.38813085  0.91908321    -0.39000
C1729       C  0.19569942  0.37380392  0.93396358     0.19900
C1730       C  0.18064213  0.36035625  0.93736662     0.22500
C1731       C  0.16303808  0.36038930  0.92623495    -0.39500
C1732       C  0.16181358  0.37483356  0.91134987     0.21300
N1733       N  0.17280781  0.39974147  0.89248504    -0.32800
C1734       C  0.15472462  0.39403870  0.88590627    -0.10300
C1735       C  0.14725824  0.37859807  0.89744786    -0.29100
N1736       N  0.18598136  0.34744369  0.95149316    -0.45700
C1737       C  0.20455107  0.35270002  0.95711304    -0.05000
C1738       C  0.21104151  0.36921259  0.94660881    -0.22400
H1739       H  0.20648853  0.39833030  0.91610999     0.19400
H1740       H  0.15136865  0.34970419  0.92870674     0.18200
H1741       H  0.13338876  0.37081388  0.89559226     0.14500
H1742       H  0.22540230  0.37626321  0.94739593     0.14400
H1743       H  0.18181584  0.41096432  0.88688213     0.32500
H1744       H  0.17774716  0.33537986  0.95654265     0.35300
C1745       C  0.89605049  0.15624419  0.82810862     0.20900
C1746       C  0.89786190  0.17165303  0.81422825    -0.39000
C1747       C  0.91590858  0.18200991  0.81443896     0.19900
C1748       C  0.93101609  0.17710463  0.82734227     0.22500
C1749       C  0.92901854  0.16206600  0.84153237    -0.39500
C1750       C  0.91091656  0.15189234  0.84147605     0.21300
N1751       N  0.88097667  0.14338979  0.83001867    -0.32800
C1752       C  0.88616355  0.13087225  0.84482089    -0.10300
C1753       C  0.90464839  0.13587956  0.85252720    -0.29100
N1754       N  0.94707090  0.18827876  0.82390063    -0.45700
C1755       C  0.94217517  0.20068623  0.80894582    -0.05000
C1756       C  0.92273943  0.19738002  0.80271333    -0.22400
H1757       H  0.88624542  0.17503094  0.80375433     0.19400
H1758       H  0.94088201  0.15826429  0.85158257     0.18200
H1759       H  0.91282469  0.12820415  0.86394180     0.14500
H1760       H  0.91488069  0.20485013  0.79095206     0.14400
H1761       H  0.86806788  0.14296508  0.82154771     0.32500
H1762       H  0.96056404  0.18764558  0.83141237     0.35300
C1763       C  0.91621189  0.07162049  0.90683040     0.20900
C1764       C  0.93103189  0.07536544  0.92082873    -0.39000
C1765       C  0.93831289  0.05876248  0.93092021     0.19900
C1766       C  0.93142532  0.03983420  0.92732901     0.22500
C1767       C  0.91657291  0.03608616  0.91331470    -0.39500
C1768       C  0.90927743  0.05272943  0.90321380     0.21300
N1769       N  0.90656843  0.08496456  0.89568892    -0.32800
C1770       C  0.89330671  0.07457292  0.88483911    -0.10300
C1771       C  0.89464945  0.05435606  0.88911605    -0.29100
N1772       N  0.94075531  0.02661724  0.93893489    -0.45700
C1773       C  0.95364236  0.03724226  0.95000814    -0.05000
C1774       C  0.95249998  0.05734563  0.94543303    -0.22400
H1775       H  0.93639394  0.09015113  0.92375900     0.19400
H1776       H  0.91103131  0.02133256  0.91055883     0.18200
H1777       H  0.88573868  0.04246841  0.88321164     0.14500
H1778       H  0.96095621  0.06931130  0.95184315     0.14400
H1779       H  0.90889149  0.10022239  0.89564823     0.32500
H1780       H  0.93846529  0.01134619  0.93933639     0.35300
C1781       C  0.78699406  0.04122849  0.80681711     0.20900
C1782       C  0.79756336  0.04114209  0.82461785    -0.39000
C1783       C  0.81423483  0.05347186  0.82524710     0.19900
C1784       C  0.81986088  0.06516076  0.80945694     0.22500
C1785       C  0.80936842  0.06510863  0.79157774    -0.39500
C1786       C  0.79277532  0.05263622  0.79086713     0.21300
N1787       N  0.77018519  0.03143518  0.80277217    -0.32800
C1788       C  0.76524469  0.03653904  0.78406483    -0.10300
C1789       C  0.77904961  0.04966394  0.77610178    -0.29100
N1790       N  0.83497853  0.07707524  0.81448022    -0.45700
C1791       C  0.83889640  0.07307419  0.83371889    -0.05000
C1792       C  0.82650235  0.05808985  0.84072907    -0.22400
H1793       H  0.79282174  0.03255503  0.83724242     0.19400
H1794       H  0.81348123  0.07451702  0.77932306     0.18200
H1795       H  0.77883240  0.05643100  0.76163367     0.14500
H1796       H  0.82551299  0.05258231  0.85568888     0.14400
H1797       H  0.76246686  0.02196578  0.81222009     0.32500
H1798       H  0.84119261  0.08803216  0.80558789     0.35300
C1799       C  0.03207594  0.93161115  0.93475719     0.20900
C1800       C  0.02828457  0.91611537  0.92139915    -0.39000
C1801       C  0.04509804  0.90641055  0.91380488     0.19900
C1802       C  0.06407487  0.91181025  0.91918522     0.22500
C1803       C  0.06784134  0.92726332  0.93238974    -0.39500
C1804       C  0.05116387  0.93689593  0.93993075     0.21300
N1805       N  0.01883159  0.94314463  0.94416085    -0.32800
C1806       C  0.02966402  0.95580400  0.95535024    -0.10300
C1807       C  0.04987112  0.95231962  0.95303606    -0.29100
N1808       N  0.07757255  0.90078459  0.90978283    -0.45700
C1809       C  0.06737178  0.88817036  0.89801863    -0.05000
C1810       C  0.04693559  0.89121329  0.90024455    -0.22400
H1811       H  0.01339663  0.91198718  0.91718263     0.19400
H1812       H  0.08273679  0.93153506  0.93644493     0.18200
H1813       H  0.06201135  0.95997831  0.96011077     0.14500
H1814       H  0.03502176  0.88382614  0.89255497     0.14400
H1815       H  0.00342360  0.94238112  0.94313011     0.32500
H1816       H  0.09286669  0.90223016  0.91124767     0.35300
C1817       C  0.92350470  0.93896867  0.03163301     0.20900
C1818       C  0.90778814  0.92583828  0.02769706    -0.39000
C1819       C  0.89877406  0.91710652  0.04431835     0.19900
C1820       C  0.90501780  0.92110308  0.06329853     0.22500
C1821       C  0.92067535  0.93414322  0.06720669    -0.39500
C1822       C  0.92957950  0.94290607  0.05069820     0.21300
N1823       N  0.93445763  0.94935841  0.01858063    -0.32800
C1824       C  0.94752785  0.95998773  0.02951650    -0.10300
C1825       C  0.94486199  0.95630509  0.04957712    -0.29100
N1826       N  0.89406665  0.91116829  0.07656797    -0.45700
C1827       C  0.88052120  0.90067651  0.06613729    -0.05000
C1828       C  0.88311101  0.90401001  0.04587105    -0.22400
H1829       H  0.90286940  0.92273999  0.01283875     0.19400
H1830       H  0.92550937  0.93733950  0.08207224     0.18200
H1831       H  0.95303112  0.96263243  0.06175606     0.14500
H1832       H  0.87474559  0.89774201  0.03381170     0.14400
H1833       H  0.93306241  0.94930908  0.00324997     0.32500
H1834       H  0.89582936  0.91172276  0.09182954     0.35300
C1835       C  0.96237213  0.09117209  0.06167035     0.20900
C1836       C  0.95966329  0.11137314  0.06575422    -0.39000
C1837       C  0.94691112  0.11569806  0.08152869     0.19900
C1838       C  0.93726731  0.10100664  0.09204133     0.22500
C1839       C  0.94016598  0.08087986  0.08813601    -0.39500
C1840       C  0.95320435  0.07657133  0.07270392     0.21300
N1841       N  0.97384511  0.08308967  0.04761682    -0.32800
C1842       C  0.97218719  0.06323141  0.05002077    -0.10300
C1843       C  0.95947143  0.05863500  0.06553392    -0.29100
N1844       N  0.92600920  0.10882929  0.10630518    -0.45700
C1845       C  0.92876447  0.12862314  0.10520903    -0.05000
C1846       C  0.94175339  0.13354417  0.08997652    -0.22400
H1847       H  0.96712560  0.12284206  0.05745386     0.19400
H1848       H  0.93297233  0.06940000  0.09665912     0.18200
H1849       H  0.95514603  0.04409501  0.07066045     0.14500
H1850       H  0.94683702  0.14813927  0.08580458     0.14400
H1851       H  0.98235815  0.09058464  0.03714765     0.32500
H1852       H  0.91752058  0.10113671  0.11665540     0.35300
C1853       C  0.08559248  0.95366547  0.10754766     0.20900
C1854       C  0.07081527  0.96816090  0.10514232    -0.39000
C1855       C  0.06374478  0.97083835  0.08580140     0.19900
C1856       C  0.07118503  0.96015961  0.07008983     0.22500
C1857       C  0.08565488  0.94546485  0.07255076    -0.39500
C1858       C  0.09240799  0.94252438  0.09187840     0.21300
N1859       N  0.09505733  0.94853695  0.12427208    -0.32800
C1860       C  0.10766873  0.93376868  0.11922462    -0.10300
C1861       C  0.10637468  0.92957101  0.09917370    -0.29100
N1862       N  0.06255802  0.96580006  0.05314421    -0.45700
C1863       C  0.04922625  0.97994492  0.05800373    -0.05000
C1864       C  0.04941060  0.98343066  0.07830427    -0.22400
H1865       H  0.06527592  0.97673897  0.11739760     0.19400
H1866       H  0.09128578  0.93696435  0.06028148     0.18200
H1867       H  0.11499504  0.91893384  0.09093760     0.14500
H1868       H  0.04044014  0.99387132  0.08641196     0.14400
H1869       H  0.09307791  0.95467799  0.13824002     0.32500
H1870       H  0.06531106  0.96010383  0.03911660     0.35300
C1871       C  0.05867482  0.20272603  0.86556492     0.20900
C1872       C  0.07150949  0.20289769  0.88182249    -0.39000
C1873       C  0.08476437  0.18697046  0.88307199     0.19900
C1874       C  0.08519933  0.17192664  0.86928693     0.22500
C1875       C  0.07243605  0.17181655  0.85295528    -0.39500
C1876       C  0.05920012  0.18778427  0.85166398     0.21300
N1877       N  0.04541011  0.21667957  0.86047701    -0.32800
C1878       C  0.03755130  0.21065912  0.84310736    -0.10300
C1879       C  0.04570638  0.19264227  0.83722785    -0.29100
N1880       N  0.09963814  0.15885729  0.87351320    -0.45700
C1881       C  0.10861073  0.16580668  0.88996906    -0.05000
C1882       C  0.09964418  0.18325529  0.89638894    -0.22400
H1883       H  0.07147936  0.21477631  0.89248273     0.19400
H1884       H  0.07303042  0.16036285  0.84186169     0.18200
H1885       H  0.04271607  0.18457407  0.82379580     0.14500
H1886       H  0.10367467  0.19224387  0.90893885     0.14400
H1887       H  0.04245106  0.22983039  0.86795888     0.32500
H1888       H  0.10361740  0.14643969  0.86529985     0.35300
C1889       C  0.08289060  0.07276367  0.96750622     0.20900
C1890       C  0.10275771  0.07893818  0.96623572    -0.39000
C1891       C  0.10700730  0.09283562  0.95134571     0.19900
C1892       C  0.09261570  0.09973936  0.93853124     0.22500
C1893       C  0.07273488  0.09392179  0.94008738    -0.39500
C1894       C  0.06843635  0.08032510  0.95513813     0.21300
N1895       N  0.07508482  0.05924389  0.97989919    -0.32800
C1896       C  0.05547180  0.05848905  0.97558322    -0.10300
C1897       C  0.05077390  0.07155483  0.96033361    -0.29100
N1898       N  0.10034480  0.11267426  0.92558352    -0.45700
C1899       C  0.11974147  0.11443548  0.93035988    -0.05000
C1900       C  0.12447545  0.10229835  0.94641121    -0.22400
H1901       H  0.11406192  0.07332812  0.97608300     0.19400
H1902       H  0.06142626  0.09955718  0.93025774     0.18200
H1903       H  0.03647017  0.07376713  0.95347187     0.14500
H1904       H  0.13869142  0.10081103  0.95363057     0.14400
H1905       H  0.08261808  0.05097023  0.99054353     0.32500
H1906       H  0.09269606  0.12046863  0.91466322     0.35300
C1907       C  0.19435727  0.22306257  0.96168184     0.20900
C1908       C  0.17808932  0.21028958  0.96327900    -0.39000
C1909       C  0.17778351  0.19445860  0.94999344     0.19900
C1910       C  0.19244255  0.19164908  0.93606284     0.22500
C1911       C  0.20878605  0.20439651  0.93453328    -0.39500
C1912       C  0.20921781  0.22012480  0.94796810     0.21300
N1913       N  0.19781806  0.23943918  0.97226621    -0.32800
C1914       C  0.21510337  0.24690089  0.96538101    -0.10300
C1915       C  0.22273142  0.23522594  0.95027143    -0.29100
N1916       N  0.18777237  0.17660283  0.92401188    -0.45700
C1917       C  0.16992594  0.16977783  0.93026396    -0.05000
C1918       C  0.16340258  0.18049337  0.94659351    -0.22400
H1919       H  0.16630484  0.21275841  0.97378475     0.19400
H1920       H  0.22011487  0.20244586  0.92344106     0.18200
H1921       H  0.23622691  0.23757099  0.94200814     0.14500
H1922       H  0.14922743  0.17926116  0.95391668     0.14400
H1923       H  0.18905068  0.24509669  0.98360361     0.32500
H1924       H  0.19565661  0.17241231  0.91149024     0.35300
C1925       C  0.28874070  0.05349269  0.71064057     0.20900
C1926       C  0.30541753  0.06583787  0.71199005    -0.39000
C1927       C  0.31749919  0.06667067  0.69517415     0.19900
C1928       C  0.31340960  0.05577687  0.67843774     0.22500
C1929       C  0.29672920  0.04345832  0.67706457    -0.39500
C1930       C  0.28451255  0.04285718  0.69375817     0.21300
N1931       N  0.27449270  0.05087634  0.72423258    -0.32800
C1932       C  0.26098743  0.03863993  0.71588041    -0.10300
C1933       C  0.26675338  0.03329925  0.69686871    -0.29100
N1934       N  0.32595772  0.06057550  0.66387298    -0.45700
C1935       C  0.33781008  0.07510107  0.67103460    -0.05000
C1936       C  0.33321796  0.07897563  0.69075753    -0.22400
H1937       H  0.30833076  0.07474867  0.72489580     0.19400
H1938       H  0.29311675  0.03552991  0.66369890     0.18200
H1939       H  0.25897263  0.02375336  0.68669010     0.14500
H1940       H  0.33923037  0.09038308  0.70014805     0.14400
H1941       H  0.27388023  0.05720634  0.73824217     0.32500
H1942       H  0.32540360  0.05549898  0.64935366     0.35300
C1943       C  0.15829120  0.10014124  0.84980782     0.20900
C1944       C  0.15200760  0.08689548  0.83518690    -0.39000
C1945       C  0.16709461  0.07721480  0.82474574     0.19900
C1946       C  0.18697696  0.08045101  0.82845716     0.22500
C1947       C  0.19326165  0.09375075  0.84309493    -0.39500
C1948       C  0.17813332  0.10343116  0.85357898     0.21300
N1949       N  0.14684375  0.11065730  0.86218254    -0.32800
C1950       C  0.15943007  0.12075237  0.87409088    -0.10300
C1951       C  0.17911193  0.11664509  0.86899911    -0.29100
N1952       N  0.19834469  0.06920528  0.81656379    -0.45700
C1953       C  0.18554103  0.05872239  0.80522806    -0.05000
C1954       C  0.16595950  0.06336323  0.80997614    -0.22400
H1955       H  0.13649149  0.08415094  0.83229192     0.19400
H1956       H  0.20877135  0.09624101  0.84623225     0.18200
H1957       H  0.19245552  0.12207106  0.87594396     0.14500
H1958       H  0.15262275  0.05733721  0.80348824     0.14400
H1959       H  0.13140036  0.11068342  0.86253695     0.32500
H1960       H  0.21378891  0.06861618  0.81626025     0.35300
C1961       C  0.13392480  0.94742070  0.81012740     0.20900
C1962       C  0.11543253  0.94050183  0.81649528    -0.39000
C1963       C  0.11592135  0.92537204  0.83067281     0.19900
C1964       C  0.13346941  0.91789114  0.83821020     0.22500
C1965       C  0.15194765  0.92465570  0.83168386    -0.39500
C1966       C  0.15145007  0.93955712  0.81728827     0.21300
N1967       N  0.13750936  0.96097593  0.79601570    -0.32800
C1968       C  0.15745183  0.96142355  0.79398179    -0.10300
C1969       C  0.16661948  0.94830108  0.80700178    -0.29100
N1970       N  0.12997008  0.90244746  0.85021809    -0.45700
C1971       C  0.11012204  0.89983452  0.84990849    -0.05000
C1972       C  0.10084122  0.91389242  0.83803370    -0.22400
H1973       H  0.10169510  0.94593980  0.81030349     0.19400
H1974       H  0.16569168  0.91825213  0.83686289     0.18200
H1975       H  0.18230203  0.94538501  0.80854178     0.14500
H1976       H  0.08531340  0.91462187  0.83414911     0.14400
H1977       H  0.12706641  0.96893940  0.78787075     0.32500
H1978       H  0.14047202  0.89321461  0.85681424     0.35300
C1979       C  0.80840828  0.29330788  0.96165401     0.20900
C1980       C  0.82473003  0.30597478  0.96398572    -0.39000
C1981       C  0.82516653  0.32258320  0.95153408     0.19900
C1982       C  0.81055282  0.32618448  0.93771633     0.22500
C1983       C  0.79419656  0.31353287  0.93540811    -0.39500
C1984       C  0.79364065  0.29703354  0.94800184     0.21300
N1985       N  0.80448236  0.27669346  0.97183864    -0.32800
C1986       C  0.78691885  0.26990576  0.96488491    -0.10300
C1987       C  0.77973204  0.28216835  0.94990615    -0.29100
N1988       N  0.81528212  0.34187947  0.92647882    -0.45700
C1989       C  0.83318527  0.34836099  0.93302135    -0.05000
C1990       C  0.83961896  0.33675211  0.94886884    -0.22400
H1991       H  0.83639153  0.30295399  0.97451893     0.19400
H1992       H  0.78285966  0.31621731  0.92444144     0.18200
H1993       H  0.76602097  0.28062550  0.94179155     0.14500
H1994       H  0.85381418  0.33750465  0.95623664     0.14400
H1995       H  0.81294291  0.27067184  0.98326590     0.32500
H1996       H  0.80738945  0.34662005  0.91412608     0.35300
C1997       C  0.82165746  0.19483775  0.08025276     0.20900
C1998       C  0.82811703  0.19295952  0.09990476    -0.39000
C1999       C  0.84544457  0.18173215  0.10279226     0.19900
C2000       C  0.85529991  0.17273511  0.08734016     0.22500
C2001       C  0.84907819  0.17492781  0.06774259    -0.39500
C2002       C  0.83204426  0.18642572  0.06483485     0.21300
N2003       N  0.80539873  0.20429349  0.07349612    -0.32800
C2004       C  0.80568521  0.20206096  0.05360867    -0.10300
C2005       C  0.82218041  0.19115899  0.04773396    -0.29100
N2006       N  0.87151693  0.16318520  0.09380313    -0.45700
C2007       C  0.87233554  0.16649469  0.11344568    -0.05000
C2008       C  0.85634354  0.17800146  0.11963720    -0.22400
H2009       H  0.82034496  0.19985141  0.11201662     0.19400
H2010       H  0.85701118  0.16826861  0.05560196     0.18200
H2011       H  0.82599371  0.18659121  0.03293985     0.14500
H2012       H  0.85350627  0.18346460  0.13434173     0.14400
H2013       H  0.79467384  0.21154968  0.08187241     0.32500
H2014       H  0.88203360  0.15584052  0.08523484     0.35300
C2015       C  0.83336443  0.13693220  0.91522030     0.20900
C2016       C  0.83240537  0.15417583  0.92656518    -0.39000
C2017       C  0.81631670  0.15540381  0.93952775     0.19900
C2018       C  0.80219410  0.14064195  0.94110363     0.22500
C2019       C  0.80307670  0.12343728  0.92965465    -0.39500
C2020       C  0.81916679  0.12222730  0.91666186     0.21300
N2021       N  0.84678166  0.13252953  0.90129021    -0.32800
C2022       C  0.84088934  0.11503083  0.89363607    -0.10300
C2023       C  0.82379178  0.10810740  0.90291193    -0.29100
N2024       N  0.78798808  0.14577712  0.95399107    -0.45700
C2025       C  0.79313654  0.16397268  0.96056638    -0.05000
C2026       C  0.81072762  0.17040127  0.95192248    -0.22400
H2027       H  0.84320065  0.16592138  0.92517091     0.19400
H2028       H  0.79187426  0.11202499  0.93051190     0.18200
H2029       H  0.81559300  0.09474233  0.89971749     0.14500
H2030       H  0.81811093  0.18445201  0.95398255     0.14400
H2031       H  0.85867373  0.14126624  0.89670200     0.32500
H2032       H  0.77534303  0.13767850  0.95765550     0.35300
C2033       C  0.07551066  0.83039504  0.18643600     0.20900
C2034       C  0.09499777  0.83753261  0.18772487    -0.39000
C2035       C  0.09976769  0.85322733  0.17498269     0.19900
C2036       C  0.08627910  0.86096201  0.16167099     0.22500
C2037       C  0.06668058  0.85405514  0.16061514    -0.39500
C2038       C  0.06180376  0.83861568  0.17363885     0.21300
N2039       N  0.06744168  0.81534511  0.19667372    -0.32800
C2040       C  0.04835831  0.81418148  0.19060673    -0.10300
C2041       C  0.04424842  0.82854722  0.17634432    -0.29100
N2042       N  0.09440827  0.87592563  0.15136228    -0.45700
C2043       C  0.11304887  0.87806713  0.15847825    -0.05000
C2044       C  0.11693896  0.86414151  0.17321383    -0.22400
H2045       H  0.10562855  0.83141253  0.19800532     0.19400
H2046       H  0.05598109  0.86033011  0.15049601     0.18200
H2047       H  0.03047238  0.83081068  0.16849431     0.14500
H2048       H  0.13036153  0.86254380  0.18179020     0.14400
H2049       H  0.07449448  0.80633809  0.20704993     0.32500
H2050       H  0.08740734  0.88477856  0.14081800     0.35300
C2051       C  0.92609729  0.67989846  0.18111920     0.20900
C2052       C  0.91197079  0.66581812  0.18689268    -0.39000
C2053       C  0.90430494  0.65394852  0.17174006     0.19900
C2054       C  0.91030130  0.65579906  0.15235254     0.22500
C2055       C  0.92448491  0.66983695  0.14657591    -0.39500
C2056       C  0.93204960  0.68182110  0.16169467     0.21300
N2057       N  0.93544707  0.69312574  0.19264476    -0.32800
C2058       C  0.94739244  0.70360712  0.18043519    -0.10300
C2059       C  0.94567262  0.69694729  0.16103315    -0.29100
N2060       N  0.90065764  0.64282053  0.14078532    -0.45700
C2061       C  0.88831893  0.63259569  0.15286935    -0.05000
C2062       C  0.89028463  0.63921883  0.17232620    -0.22400
H2063       H  0.90718586  0.66430557  0.20203920     0.19400
H2064       H  0.92917671  0.67142143  0.13140832     0.18200
H2065       H  0.95340420  0.70242581  0.14816624     0.14500
H2066       H  0.88256107  0.63409825  0.18531728     0.14400
H2067       H  0.93379408  0.69491710  0.20783808     0.32500
H2068       H  0.90247420  0.64113080  0.12561101     0.35300
C2069       C  0.93624773  0.82565061  0.14339586     0.20900
C2070       C  0.92422353  0.84262370  0.14336324    -0.39000
C2071       C  0.90993422  0.84360176  0.12835949     0.19900
C2072       C  0.90781895  0.82874679  0.11454190     0.22500
C2073       C  0.92005198  0.81195864  0.11436446    -0.39500
C2074       C  0.93434892  0.81098898  0.12932690     0.21300
N2075       N  0.94960886  0.82036860  0.15709940    -0.32800
C2076       C  0.95624097  0.80220141  0.15178969    -0.10300
C2077       C  0.94728569  0.79597958  0.13434435    -0.29100
N2078       N  0.89257830  0.83263092  0.10245074    -0.45700
C2079       C  0.88493120  0.85017673  0.10843912    -0.05000
C2080       C  0.89546564  0.85755954  0.12453005    -0.22400
H2081       H  0.92550163  0.85393061  0.15455138     0.19400
H2082       H  0.91814565  0.80020821  0.10373113     0.18200
H2083       H  0.94900507  0.78185531  0.12708117     0.14500
H2084       H  0.89267295  0.87105823  0.13259106     0.14400
H2085       H  0.95333762  0.82826643  0.16978120     0.32500
H2086       H  0.88784157  0.82388167  0.09069642     0.35300
C2087       C  0.08759571  0.68550687  0.11854507     0.20900
C2088       C  0.07326645  0.70042862  0.11676151    -0.39000
C2089       C  0.06312261  0.70525304  0.13409602     0.19900
C2090       C  0.06726115  0.69615879  0.15192635     0.22500
C2091       C  0.08143536  0.68102869  0.15366927    -0.39500
C2092       C  0.09132438  0.67592821  0.13622087     0.21300
N2093       N  0.09996089  0.67911488  0.10448994    -0.32800
C2094       C  0.11149786  0.66519179  0.11314160    -0.10300
C2095       C  0.10647932  0.66260954  0.13290518    -0.29100
N2096       N  0.05648167  0.70427755  0.16642326    -0.45700
C2097       C  0.04523088  0.71846125  0.15773663    -0.05000
C2098       C  0.04881880  0.71940368  0.13753214    -0.22400
H2099       H  0.07048889  0.70798650  0.10295480     0.19400
H2100       H  0.08477202  0.67401804  0.16763919     0.18200
H2101       H  0.11374551  0.65320219  0.14362246     0.14500
H2102       H  0.04240092  0.72955792  0.12695802     0.14400
H2103       H  0.10088852  0.68428919  0.09000086     0.32500
H2104       H  0.05686996  0.70052746  0.18136295     0.35300
C2105       C  0.66280989  0.14374093  0.08947659     0.20900
C2106       C  0.66805732  0.16218068  0.08153757    -0.39000
C2107       C  0.68232921  0.16180154  0.06652025     0.19900
C2108       C  0.69047507  0.14437878  0.05955032     0.22500
C2109       C  0.68530096  0.12593778  0.06755312    -0.39500
C2110       C  0.67134803  0.12635395  0.08286873     0.21300
N2111       N  0.65124790  0.14031649  0.10527380    -0.32800
C2112       C  0.65283375  0.12069786  0.10895808    -0.10300
C2113       C  0.66511837  0.11149687  0.09526275    -0.29100
N2114       N  0.70466740  0.14814266  0.04612196    -0.45700
C2115       C  0.70586501  0.16812066  0.04494196    -0.05000
C2116       C  0.69207453  0.17710419  0.05732083    -0.22400
H2117       H  0.66220083  0.17589280  0.08729944     0.19400
H2118       H  0.69234593  0.11236280  0.06288277     0.18200
H2119       H  0.66981348  0.09619382  0.09517887     0.14500
H2120       H  0.68995265  0.19277304  0.05975527     0.14400
H2121       H  0.64396338  0.15082529  0.11388265     0.32500
H2122       H  0.71365340  0.13783224  0.03899372     0.35300
C2123       C  0.58763396  0.05617282  0.10265652     0.20900
C2124       C  0.58000034  0.03846351  0.09482830    -0.39000
C2125       C  0.56622990  0.04059454  0.07937629     0.19900
C2126       C  0.56056942  0.05897528  0.07236262     0.22500
C2127       C  0.56820321  0.07660297  0.08014699    -0.39500
C2128       C  0.58190402  0.07445734  0.09553392     0.21300
N2129       N  0.60124410  0.05823004  0.11702959    -0.32800
C2130       C  0.60425816  0.07801615  0.11906228    -0.10300
C2131       C  0.59232141  0.08853686  0.10585534    -0.29100
N2132       N  0.54752140  0.05715504  0.05753798    -0.45700
C2133       C  0.54476942  0.03747068  0.05489957    -0.05000
C2134       C  0.55620109  0.02661204  0.06830392    -0.22400
H2135       H  0.58456275  0.02410533  0.10025138     0.19400
H2136       H  0.56389635  0.09096303  0.07451628     0.18200
H2137       H  0.59151654  0.10434413  0.10362024     0.14500
H2138       H  0.55712165  0.01069363  0.06969045     0.14400
H2139       H  0.60825779  0.04676434  0.12462860     0.32500
H2140       H  0.54098070  0.06867136  0.04957001     0.35300
C2141       C  0.61864295  0.09466356  0.81983665     0.20900
C2142       C  0.61939512  0.08353285  0.80242281    -0.39000
C2143       C  0.63500821  0.06996154  0.80107571     0.19900
C2144       C  0.64882157  0.06763049  0.81597150     0.22500
C2145       C  0.64792906  0.07863027  0.83353169    -0.39500
C2146       C  0.63228513  0.09226897  0.83486808     0.21300
N2147       N  0.60605592  0.10941044  0.82398562    -0.32800
C2148       C  0.61167794  0.11667016  0.84177075    -0.10300
C2149       C  0.62786598  0.10613820  0.84917159    -0.29100
N2150       N  0.66284213  0.05460118  0.81058064    -0.45700
C2151       C  0.65789175  0.04856943  0.79214636    -0.05000
C2152       C  0.64054883  0.05777583  0.78577127    -0.22400
H2153       H  0.60892247  0.08571458  0.79053231     0.19400
H2154       H  0.65892635  0.07709326  0.84504256     0.18200
H2155       H  0.63591745  0.10886878  0.86268511     0.14500
H2156       H  0.63335043  0.05626580  0.77159871     0.14400
H2157       H  0.59453349  0.11437083  0.81497819     0.32500
H2158       H  0.67524528  0.05038024  0.81878068     0.35300
C2159       C  0.67452718  0.19615521  0.92513184     0.20900
C2160       C  0.66029604  0.20195167  0.91109177    -0.39000
C2161       C  0.64924153  0.18655751  0.90246459     0.19900
C2162       C  0.65215034  0.16691822  0.90736364     0.22500
C2163       C  0.66643951  0.16111621  0.92126237    -0.39500
C2164       C  0.67741400  0.17646437  0.92992083     0.21300
N2165       N  0.68652215  0.20788228  0.93595404    -0.32800
C2166       C  0.69709563  0.19549697  0.94772405    -0.10300
C2167       C  0.69179435  0.17582485  0.94427707    -0.29100
N2168       N  0.63918303  0.15522034  0.89780057    -0.45700
C2169       C  0.62772442  0.16743505  0.88669980    -0.05000
C2170       C  0.63376756  0.18712938  0.88918430    -0.22400
H2171       H  0.65774166  0.21732597  0.90742596     0.19400
H2172       H  0.66859987  0.14578242  0.92533600     0.18200
H2173       H  0.69755419  0.16275472  0.95152256     0.14500
H2174       H  0.62740984  0.20029160  0.88268433     0.14400
H2175       H  0.68732223  0.22329984  0.93549830     0.32500
H2176       H  0.63804965  0.13989178  0.89917479     0.35300
C2177       C  0.55187581  0.11432026  0.91554704     0.20900
C2178       C  0.53753110  0.11194419  0.93040007    -0.39000
C2179       C  0.53456933  0.09249202  0.93717668     0.19900
C2180       C  0.54477925  0.07660101  0.92936759     0.22500
C2181       C  0.55931711  0.07901056  0.91474801    -0.39500
C2182       C  0.56261420  0.09849441  0.90832650     0.21300
N2183       N  0.55724199  0.13119839  0.90642577    -0.32800
C2184       C  0.57178391  0.12614799  0.89359850    -0.10300
C2185       C  0.57560411  0.10588753  0.89443522    -0.29100
N2186       N  0.53915493  0.05963579  0.93809954    -0.45700
C2187       C  0.52556530  0.06471192  0.95189974    -0.05000
C2188       C  0.52233522  0.08512145  0.95180857    -0.22400
H2189       H  0.52935344  0.12434053  0.93631401     0.19400
H2190       H  0.56753551  0.06662112  0.90887152     0.18200
H2191       H  0.58596569  0.09759907  0.88553304     0.14500
H2192       H  0.51243642  0.09342199  0.96119980     0.14400
H2193       H  0.55134429  0.14528194  0.90871865     0.32500
H2194       H  0.54465107  0.04549290  0.93524091     0.35300
C2195       C  0.53743174  0.20195124  0.78658925     0.20900
C2196       C  0.53702145  0.18487883  0.79832005    -0.39000
C2197       C  0.54942606  0.18502502  0.81487139     0.19900
C2198       C  0.56144685  0.20092413  0.81943496     0.22500
C2199       C  0.56163108  0.21821456  0.80781759    -0.39500
C2200       C  0.54913788  0.21808583  0.79120517     0.21300
N2201       N  0.52771207  0.20493032  0.76957374    -0.32800
C2202       C  0.53309798  0.22315098  0.76322245    -0.10300
C2203       C  0.54640221  0.23190998  0.77639063    -0.29100
N2204       N  0.57362913  0.19633779  0.83450872    -0.45700
C2205       C  0.56946318  0.17725558  0.83940244    -0.05000
C2206       C  0.55408763  0.16998781  0.82771700    -0.22400
H2207       H  0.52825180  0.17208101  0.79440464     0.19400
H2208       H  0.57133373  0.23052770  0.81103797     0.18200
H2209       H  0.55329072  0.24631031  0.77516754     0.14500
H2210       H  0.54844799  0.15500926  0.82742641     0.14400
H2211       H  0.51799293  0.19511895  0.76267988     0.32500
H2212       H  0.58497407  0.20526616  0.83992414     0.35300
C2213       C  0.42820985  0.07883858  0.04726830     0.20900
C2214       C  0.42465547  0.09128725  0.06334567    -0.39000
C2215       C  0.40556816  0.09924023  0.06455331     0.19900
C2216       C  0.39108025  0.09543053  0.05065567     0.22500
C2217       C  0.39453446  0.08261710  0.03465599    -0.39500
C2218       C  0.41365916  0.07431505  0.03362431     0.21300
N2219       N  0.44522252  0.06956745  0.04294963    -0.32800
C2220       C  0.44155653  0.05863775  0.02666226    -0.10300
C2221       C  0.42196423  0.06110642  0.02039746    -0.29100
N2222       N  0.37443992  0.10562257  0.05486570    -0.45700
C2223       C  0.37840617  0.11570071  0.07172935    -0.05000
C2224       C  0.39765262  0.11198387  0.07815868    -0.22400
H2225       H  0.43598529  0.09460068  0.07413300     0.19400
H2226       H  0.38322257  0.07938202  0.02383005     0.18200
H2227       H  0.41483334  0.05425091  0.00786887     0.14500
H2228       H  0.40518288  0.11834163  0.09071782     0.14400
H2229       H  0.45844556  0.07022081  0.05091869     0.32500
H2230       H  0.36128913  0.10576058  0.04676302     0.35300
C2231       C  0.31450138  0.19024196  0.05191272     0.20900
C2232       C  0.31083687  0.20069549  0.03437478    -0.39000
C2233       C  0.29835205  0.21720425  0.03603759     0.19900
C2234       C  0.29007579  0.22286067  0.05380065     0.22500
C2235       C  0.29372614  0.21239841  0.07133885    -0.39500
C2236       C  0.30628833  0.19593598  0.06967719     0.21300
N2237       N  0.32713919  0.17507723  0.05451567    -0.32800
C2238       C  0.32701322  0.17097871  0.07411658    -0.10300
C2239       C  0.31422115  0.18383790  0.08400770    -0.29100
N2240       N  0.27960357  0.23966061  0.05165114    -0.45700
C2241       C  0.28131761  0.24481132  0.03239352    -0.05000
C2242       C  0.29281085  0.23107837  0.02217683    -0.22400
H2243       H  0.31771073  0.19664615  0.02056196     0.19400
H2244       H  0.28776405  0.21711463  0.08535945     0.18200
H2245       H  0.31194909  0.18493511  0.09975283     0.14500
H2246       H  0.29697180  0.23147594  0.00678206     0.14400
H2247       H  0.33618710  0.16884251  0.04373230     0.32500
H2248       H  0.27213504  0.24738012  0.06269089     0.35300
C2249       C  0.46581845  0.93352641  0.07012575     0.20900
C2250       C  0.46939007  0.91931852  0.08489052    -0.39000
C2251       C  0.45264729  0.90915758  0.09195361     0.19900
C2252       C  0.43380497  0.91289017  0.08489900     0.22500
C2253       C  0.43021900  0.92709583  0.07018053    -0.39500
C2254       C  0.44693113  0.93723857  0.06312570     0.21300
N2255       N  0.47916570  0.94520995  0.06099693    -0.32800
C2256       C  0.46866788  0.95650337  0.04813436    -0.10300
C2257       C  0.44851773  0.95191125  0.04908534    -0.29100
N2258       N  0.42037375  0.90153799  0.09421931    -0.45700
C2259       C  0.43065308  0.89040719  0.10741081    -0.05000
C2260       C  0.45089142  0.89477650  0.10632804    -0.22400
H2261       H  0.48410672  0.91642959  0.09051678     0.19400
H2262       H  0.41547261  0.93011290  0.06469335     0.18200
H2263       H  0.43660855  0.95843257  0.04059222     0.14500
H2264       H  0.46274335  0.88866827  0.11517577     0.14400
H2265       H  0.49443178  0.94553669  0.06342153     0.32500
H2266       H  0.40513660  0.90152453  0.09167818     0.35300
C2267       C  0.44984445  0.83234459  0.18741175     0.20900
C2268       C  0.46127303  0.83407638  0.20457692    -0.39000
C2269       C  0.46317979  0.81685084  0.21592429     0.19900
C2270       C  0.45451698  0.79912284  0.21056283     0.22500
C2271       C  0.44293100  0.79741503  0.19337982    -0.39500
C2272       C  0.44084241  0.81478893  0.18207858     0.21300
N2273       N  0.44461513  0.84698951  0.17510024    -0.32800
C2274       C  0.43165933  0.83906374  0.16203512    -0.10300
C2275       C  0.42922482  0.81879638  0.16573348    -0.29100
N2276       N  0.45847033  0.78501525  0.22407997    -0.45700
C2277       C  0.46963988  0.79393339  0.23815084    -0.05000
C2278       C  0.47282660  0.81378561  0.23353494    -0.22400
H2279       H  0.46781881  0.84797633  0.20902807     0.19400
H2280       H  0.43566564  0.78373464  0.18938723     0.18200
H2281       H  0.41934823  0.80857258  0.15845694     0.14500
H2282       H  0.48118039  0.82453117  0.24191708     0.14400
H2283       H  0.44851725  0.86188303  0.17635653     0.32500
H2284       H  0.45386742  0.77027410  0.22375768     0.35300
C2285       C  0.66958271  0.90616789  0.84582009     0.20900
C2286       C  0.68191588  0.90718735  0.82911424    -0.39000
C2287       C  0.68442600  0.92612573  0.82084181     0.19900
C2288       C  0.67561231  0.94269734  0.82892982     0.22500
C2289       C  0.66298911  0.94160485  0.84529412    -0.39500
C2290       C  0.66017285  0.92270437  0.85329333     0.21300
N2291       N  0.66540950  0.89017440  0.85690340    -0.32800
C2292       C  0.65300511  0.89656761  0.87127543    -0.10300
C2293       C  0.64923675  0.91672166  0.86939391    -0.29100
N2294       N  0.68047729  0.95898882  0.81872808    -0.45700
C2295       C  0.69214615  0.95288327  0.80370508    -0.05000
C2296       C  0.69493632  0.93239908  0.80443952    -0.22400
H2297       H  0.68907114  0.89423364  0.82307319     0.19400
H2298       H  0.65593033  0.95457687  0.85140858     0.18200
H2299       H  0.64044659  0.92590024  0.87906607     0.14500
H2300       H  0.70332837  0.92335743  0.79430425     0.14400
H2301       H  0.67082318  0.87584119  0.85497951     0.32500
H2302       H  0.67558481  0.97338084  0.82144219     0.35300
C2303       C  0.59740768  0.91988499  0.95005882     0.20900
C2304       C  0.58959489  0.92634990  0.96816300    -0.39000
C2305       C  0.57513289  0.94127504  0.96704750     0.19900
C2306       C  0.56899424  0.94912605  0.94921887     0.22500
C2307       C  0.57679740  0.94267086  0.93113362    -0.39500
C2308       C  0.59121248  0.92773530  0.93226979     0.21300
N2309       N  0.61080284  0.90545562  0.94713862    -0.32800
C2310       C  0.61319098  0.90395898  0.92730175    -0.10300
C2311       C  0.60116926  0.91773712  0.91757377    -0.29100
N2312       N  0.55473619  0.96269340  0.95201743    -0.45700
C2313       C  0.55160637  0.96354296  0.97176739    -0.05000
C2314       C  0.56415823  0.95041267  0.98167103    -0.22400
H2315       H  0.59424057  0.92001940  0.98208127     0.19400
H2316       H  0.57178574  0.94863602  0.91717798     0.18200
H2317       H  0.59955938  0.92001027  0.90187468     0.14500
H2318       H  0.56491327  0.94767677  0.99737276     0.14400
H2319       H  0.61741053  0.89681530  0.95808166     0.32500
H2320       H  0.54735612  0.97071229  0.94107236     0.35300
C2321       C  0.41196241  0.94368552  0.90596448     0.20900
C2322       C  0.41869438  0.94345508  0.92554880    -0.39000
C2323       C  0.43157071  0.95884185  0.93083698     0.19900
C2324       C  0.43773795  0.97308818  0.91750452     0.22500
C2325       C  0.43080480  0.97344923  0.89795137    -0.39500
C2326       C  0.41750881  0.95831605  0.89278425     0.21300
N2327       N  0.39904858  0.93113198  0.89758178    -0.32800
C2328       C  0.39597893  0.93796664  0.87902329    -0.10300
C2329       C  0.40724255  0.95493994  0.87547949    -0.29100
N2330       N  0.45010716  0.98603146  0.92620887    -0.45700
C2331       C  0.45141232  0.98022566  0.94531101    -0.05000
C2332       C  0.44004550  0.96334953  0.94875819    -0.22400
H2333       H  0.41394782  0.93232030  0.93601089     0.19400
H2334       H  0.43515048  0.98487649  0.88763374     0.18200
H2335       H  0.40771403  0.96370588  0.86212503     0.14500
H2336       H  0.43837470  0.95536538  0.96250190     0.14400
H2337       H  0.39216343  0.91906739  0.90434444     0.32500
H2338       H  0.45691350  0.99827528  0.91969406     0.35300
C2339       C  0.29139719  0.97193517  0.79904733     0.20900
C2340       C  0.30946916  0.97571088  0.80867248    -0.39000
C2341       C  0.32081814  0.95897885  0.81361250     0.19900
C2342       C  0.31460300  0.94002532  0.80914866     0.22500
C2343       C  0.29661251  0.93625747  0.79950586    -0.39500
C2344       C  0.28528389  0.95292775  0.79463668     0.21300
N2345       N  0.27767075  0.98518254  0.79331078    -0.32800
C2346       C  0.26277512  0.97452654  0.78509483    -0.10300
C2347       C  0.26701137  0.95433876  0.78567369    -0.29100
N2348       N  0.32702409  0.92660276  0.81683410    -0.45700
C2349       C  0.34114532  0.93687084  0.82669395    -0.05000
C2350       C  0.33796165  0.95723907  0.82468752    -0.22400
H2351       H  0.31407126  0.99053167  0.81253742     0.19400
H2352       H  0.29156231  0.92138013  0.79648377     0.18200
H2353       H  0.25792013  0.94231937  0.78030752     0.14500
H2354       H  0.34601989  0.96914889  0.83163628     0.14400
H2355       H  0.27844655  0.00053495  0.79477100     0.32500
H2356       H  0.32521867  0.91126057  0.81662819     0.35300
C2357       C  0.19682243  0.72217828  0.03911827     0.20900
C2358       C  0.17892481  0.71176687  0.03994654    -0.39000
C2359       C  0.17901160  0.69466581  0.05160404     0.19900
C2360       C  0.19556150  0.68844330  0.06191092     0.22500
C2361       C  0.21364918  0.69872440  0.06081367    -0.39500
C2362       C  0.21361806  0.71584421  0.04897947     0.21300
N2363       N  0.20025712  0.73920801  0.02953650    -0.32800
C2364       C  0.21944468  0.74381566  0.03310258    -0.10300
C2365       C  0.22833049  0.72955551  0.04517031    -0.29100
N2366       N  0.19106601  0.67298682  0.07365156    -0.45700
C2367       C  0.17144380  0.66948887  0.07082650    -0.05000
C2368       C  0.16366359  0.68242946  0.05676376    -0.22400
H2369       H  0.16571295  0.71692872  0.03250395     0.19400
H2370       H  0.22659174  0.69408840  0.06902371     0.18200
H2371       H  0.24343771  0.72930679  0.05048520     0.14500
H2372       H  0.14834801  0.68376655  0.05224428     0.14400
H2373       H  0.19013404  0.74719049  0.02100986     0.32500
H2374       H  0.20060684  0.66611886  0.08364040     0.35300
C2375       C  0.35093644  0.84850237  0.09147281     0.20900
C2376       C  0.33572890  0.85460635  0.07870889    -0.39000
C2377       C  0.32549725  0.83944539  0.06891221     0.19900
C2378       C  0.32993010  0.81965294  0.07165116     0.22500
C2379       C  0.34513092  0.81354103  0.08450866    -0.39500
C2380       C  0.35545019  0.82875425  0.09425944     0.21300
N2381       N  0.36320516  0.86010217  0.10197672    -0.32800
C2382       C  0.37580553  0.84774372  0.11158455    -0.10300
C2383       C  0.37128463  0.82801000  0.10714146    -0.29100
N2384       N  0.31825990  0.80819794  0.06023616    -0.45700
C2385       C  0.30637274  0.82083242  0.05008967    -0.05000
C2386       C  0.31047645  0.84042485  0.05520058    -0.22400
H2387       H  0.33230185  0.87006656  0.07634586     0.19400
H2388       H  0.34883436  0.79810381  0.08656986     0.18200
H2389       H  0.37877568  0.81482202  0.11224866     0.14500
H2390       H  0.30352189  0.85366565  0.04946653     0.14400
H2391       H  0.36294978  0.87552292  0.10238431     0.32500
H2392       H  0.31853421  0.79279382  0.05923042     0.35300
C2393       C  0.17795820  0.82063353  0.92106287     0.20900
C2394       C  0.17011719  0.82225937  0.90187183    -0.39000
C2395       C  0.15219169  0.83281872  0.90014361     0.19900
C2396       C  0.14308811  0.84152555  0.91620502     0.22500
C2397       C  0.15073590  0.83963579  0.93533888    -0.39500
C2398       C  0.16830958  0.82871178  0.93711907     0.21300
N2399       N  0.19486732  0.81158505  0.92679166    -0.32800
C2400       C  0.19567560  0.81367548  0.94669440    -0.10300
C2401       C  0.17930608  0.82416026  0.95356766    -0.29100
N2402       N  0.12630732  0.85080166  0.91077021    -0.45700
C2403       C  0.12435997  0.84758095  0.89117652    -0.05000
C2404       C  0.14020938  0.83643093  0.88399686    -0.22400
H2405       H  0.17732123  0.81566299  0.88925873     0.19400
H2406       H  0.14344242  0.84608266  0.94797992     0.18200
H2407       H  0.17619532  0.82843910  0.96860954     0.14500
H2408       H  0.14253470  0.83153035  0.86900799     0.14400
H2409       H  0.20518798  0.80452186  0.91777720     0.32500
H2410       H  0.11641110  0.85828531  0.91992311     0.35300
C2411       C  0.32540849  0.88942774  0.91003671     0.20900
C2412       C  0.30950206  0.89066644  0.92324913    -0.39000
C2413       C  0.30606850  0.87383220  0.93480197     0.19900
C2414       C  0.31745300  0.85691391  0.93303738     0.22500
C2415       C  0.33363244  0.85578422  0.92002342    -0.39500
C2416       C  0.33725401  0.87279080  0.90863934     0.21300
N2417       N  0.33074055  0.90298816  0.89663881    -0.32800
C2418       C  0.34621114  0.89515215  0.88665807    -0.10300
C2419       C  0.35092957  0.87636265  0.89383794    -0.29100
N2420       N  0.30998053  0.84233993  0.94427577    -0.45700
C2421       C  0.29390236  0.85009296  0.95341034    -0.05000
C2422       C  0.29110146  0.86979912  0.94806713    -0.22400
H2423       H  0.30011311  0.90360763  0.92404186     0.19400
H2424       H  0.34236050  0.84246015  0.91846075     0.18200
H2425       H  0.36206595  0.86632043  0.88827663     0.14500
H2426       H  0.27905482  0.87943252  0.95231679     0.14400
H2427       H  0.32397717  0.91666359  0.89416844     0.32500
H2428       H  0.31515452  0.82781450  0.94527145     0.35300
C2429       C  0.19923944  0.87137239  0.06103234     0.20900
C2430       C  0.19860215  0.88757497  0.07386910    -0.39000
C2431       C  0.18231991  0.88818948  0.08667123     0.19900
C2432       C  0.16766886  0.87388016  0.08666566     0.22500
C2433       C  0.16837000  0.85759490  0.07390878    -0.39500
C2434       C  0.18471244  0.85692773  0.06114723     0.21300
N2435       N  0.21362961  0.86689099  0.04809107    -0.32800
C2436       C  0.20829551  0.84937109  0.04001801    -0.10300
C2437       C  0.19030670  0.84276051  0.04774351    -0.29100
N2438       N  0.15407074  0.87762944  0.10066304    -0.45700
C2439       C  0.16028914  0.89431426  0.10979108    -0.05000
C2440       C  0.17781530  0.90133438  0.10139529    -0.22400
H2441       H  0.21013857  0.89867751  0.07415240     0.19400
H2442       H  0.15722005  0.84610443  0.07414575     0.18200
H2443       H  0.18269248  0.82906984  0.04447948     0.14500
H2444       H  0.18631009  0.91420061  0.10566053     0.14400
H2445       H  0.22659050  0.87488564  0.04543870     0.32500
H2446       H  0.14175638  0.86900529  0.10423846     0.35300
C2447       C  0.18384535  0.94040218  0.19258063     0.20900
C2448       C  0.19750164  0.93855241  0.20809132    -0.39000
C2449       C  0.21300403  0.95236652  0.20814284     0.19900
C2450       C  0.21487244  0.96677504  0.19373749     0.22500
C2451       C  0.20118784  0.96870454  0.17833155    -0.39500
C2452       C  0.18561502  0.95502192  0.17839160     0.21300
N2453       N  0.16900322  0.92794133  0.18806617    -0.32800
C2454       C  0.16130335  0.93464710  0.17080006    -0.10300
C2455       C  0.17121160  0.95165988  0.16452488    -0.29100
N2456       N  0.23100051  0.97791797  0.19691830    -0.45700
C2457       C  0.23931957  0.97073998  0.21363984    -0.05000
C2458       C  0.22856701  0.95475523  0.22104856    -0.22400
H2459       H  0.19637402  0.92697048  0.21906960     0.19400
H2460       H  0.20279856  0.97975582  0.16687745     0.18200
H2461       H  0.16939489  0.95932400  0.15061612     0.14500
H2462       H  0.23156296  0.94625805  0.23425626     0.14400
H2463       H  0.16561982  0.91479515  0.19541351     0.32500
H2464       H  0.23573803  0.99000608  0.18854453     0.35300
C2465       C  0.32421610  0.11130012  0.15395219     0.20900
C2466       C  0.31112336  0.10895426  0.16993854    -0.39000
C2467       C  0.31079462  0.09006764  0.17869531     0.19900
C2468       C  0.32238469  0.07473490  0.17172316     0.22500
C2469       C  0.33573334  0.07720047  0.15608481    -0.39500
C2470       C  0.33630362  0.09608586  0.14758751     0.21300
N2471       N  0.32659166  0.12736385  0.14245103    -0.32800
C2472       C  0.34047507  0.12237472  0.12888231    -0.10300
C2473       C  0.34702649  0.10305549  0.13174842    -0.29100
N2474       N  0.31895244  0.05808409  0.18193617    -0.45700
C2475       C  0.30535045  0.06274066  0.19583278    -0.05000
C2476       C  0.29994488  0.08266068  0.19441073    -0.22400
H2477       H  0.30173487  0.12086310  0.17501276     0.19400
H2478       H  0.34484129  0.06518689  0.15075376     0.18200
H2479       H  0.35742339  0.09488266  0.12278234     0.14500
H2480       H  0.28946764  0.09057031  0.20351173     0.14400
H2481       H  0.31900066  0.14077219  0.14353729     0.32500
H2482       H  0.32581374  0.04440288  0.17986207     0.35300
C2483       C  0.31466035  0.93347394  0.32424985     0.20900
C2484       C  0.30896230  0.91845581  0.33738610    -0.39000
C2485       C  0.32410226  0.91067260  0.34929897     0.19900
C2486       C  0.34344957  0.91724310  0.34821798     0.22500
C2487       C  0.34919559  0.93216780  0.33498610    -0.39500
C2488       C  0.33404798  0.94000072  0.32311093     0.21300
N2489       N  0.30299406  0.94363174  0.31169134    -0.32800
C2490       C  0.31508021  0.95670915  0.30246302    -0.10300
C2491       C  0.33454314  0.95483843  0.30920182    -0.29100
N2492       N  0.35480484  0.90808023  0.36175642    -0.45700
C2493       C  0.34258258  0.89560648  0.37168000    -0.05000
C2494       C  0.32332552  0.89677507  0.36411435    -0.22400
H2495       H  0.29379055  0.91344096  0.33850997     0.19400
H2496       H  0.36427307  0.93752756  0.33422405     0.18200
H2497       H  0.34733626  0.96330238  0.30460000     0.14500
H2498       H  0.31025479  0.88897522  0.36902794     0.14400
H2499       H  0.28779104  0.94180320  0.30955983     0.32500
H2500       H  0.36980932  0.91068240  0.36433097     0.35300
C2501       C  0.35169547  0.94760965  0.18284632     0.20900
C2502       C  0.35158571  0.93535253  0.16615587    -0.39000
C2503       C  0.36762047  0.92228220  0.16452281     0.19900
C2504       C  0.38248240  0.92149321  0.17855478     0.22500
C2505       C  0.38266951  0.93382714  0.19514047    -0.39500
C2506       C  0.36670296  0.94691811  0.19673170     0.21300
N2507       N  0.33765906  0.96050854  0.18831709    -0.32800
C2508       C  0.34375517  0.96808041  0.20579708    -0.10300
C2509       C  0.36188021  0.96003216  0.21149599    -0.29100
N2510       N  0.39535250  0.90704214  0.17437729    -0.45700
C2511       C  0.38870012  0.89846149  0.15758261    -0.05000
C2512       C  0.37154801  0.90773293  0.15079739    -0.22400
H2513       H  0.33965966  0.93564563  0.15549706     0.19400
H2514       H  0.39414148  0.93292130  0.20625329     0.18200
H2515       H  0.37000364  0.96279563  0.22496625     0.14500
H2516       H  0.36268147  0.90377681  0.13811463     0.14400
H2517       H  0.32444312  0.96353205  0.18089219     0.32500
H2518       H  0.40779173  0.90312770  0.18266614     0.35300
C2519       C  0.37970096  0.09530564  0.32377233     0.20900
C2520       C  0.38104770  0.08141785  0.30852082    -0.39000
C2521       C  0.36333071  0.07197731  0.30342911     0.19900
C2522       C  0.34556705  0.07637242  0.31258156     0.22500
C2523       C  0.34425644  0.09010918  0.32801686    -0.39500
C2524       C  0.36207792  0.09928160  0.33338614     0.21300
N2525       N  0.39419529  0.10700305  0.33051521    -0.32800
C2526       C  0.38586597  0.11834224  0.34468516    -0.10300
C2527       C  0.36587429  0.11388783  0.34707899    -0.29100
N2528       N  0.33069831  0.06617591  0.30431407    -0.45700
C2529       C  0.33909876  0.05502689  0.29000157    -0.05000
C2530       C  0.35946200  0.05811856  0.28906553    -0.22400
H2531       H  0.39482348  0.07842732  0.30096273     0.19400
H2532       H  0.33034522  0.09362279  0.33508920     0.18200
H2533       H  0.35534589  0.12119294  0.35661672     0.14500
H2534       H  0.36988018  0.05159434  0.27886853     0.14400
H2535       H  0.40876450  0.10766310  0.32540608     0.32500
H2536       H  0.31572962  0.06680804  0.30811404     0.35300
C2537       C  0.55328632  0.79855544  0.71063199     0.20900
C2538       C  0.57095496  0.80297433  0.70075466    -0.39000
C2539       C  0.56900175  0.81457270  0.68370805     0.19900
C2540       C  0.55087811  0.82126472  0.67690534     0.22500
C2541       C  0.53318019  0.81685594  0.68681181    -0.39500
C2542       C  0.53512967  0.80527700  0.70390985     0.21300
N2543       N  0.55124165  0.78845958  0.72760715    -0.32800
C2544       C  0.53162610  0.78882612  0.73175834    -0.10300
C2545       C  0.52111350  0.79913148  0.71729136    -0.29100
N2546       N  0.55323804  0.83334449  0.66128176    -0.45700
C2547       C  0.57306712  0.83441762  0.65819570    -0.05000
C2548       C  0.58327698  0.82284880  0.67191945    -0.22400
H2549       H  0.58523526  0.79822358  0.70624931     0.19400
H2550       H  0.51900773  0.82247834  0.68189025     0.18200
H2551       H  0.50535282  0.80196852  0.71678780     0.14500
H2552       H  0.59915121  0.82173478  0.67379628     0.14400
H2553       H  0.56250675  0.78198266  0.73597548     0.32500
H2554       H  0.54210246  0.84132831  0.65415505     0.35300
C2555       C  0.43547155  0.83391985  0.82480495     0.20900
C2556       C  0.42901994  0.84523513  0.84083107    -0.39000
C2557       C  0.41530013  0.86010578  0.83642929     0.19900
C2558       C  0.40851318  0.86349229  0.81750241     0.22500
C2559       C  0.41508224  0.85221121  0.80136049    -0.39500
C2560       C  0.42887741  0.83726070  0.80577031     0.21300
N2561       N  0.44814872  0.81870158  0.82535485    -0.32800
C2562       C  0.44981233  0.81217458  0.80656937    -0.10300
C2563       C  0.43805891  0.82344850  0.79382070    -0.29100
N2564       N  0.39514166  0.87822205  0.81739596    -0.45700
C2565       C  0.39335512  0.88423961  0.83643870    -0.05000
C2566       C  0.40584527  0.87325792  0.84867446    -0.22400
H2567       H  0.43416283  0.84250423  0.85570261     0.19400
H2568       H  0.40971741  0.85476390  0.78653689     0.18200
H2569       H  0.43630961  0.82165061  0.77807233     0.14500
H2570       H  0.40772607  0.87443490  0.86444891     0.14400
H2571       H  0.45524989  0.81306206  0.83784837     0.32500
H2572       H  0.38761842  0.88357185  0.80504762     0.35300
C2573       C  0.56152082  0.81876746  0.84515894     0.20900
C2574       C  0.57548535  0.83397443  0.84349786    -0.39000
C2575       C  0.58290329  0.84126270  0.86128118     0.19900
C2576       C  0.57706467  0.83368577  0.87934177     0.22500
C2577       C  0.56284718  0.81860734  0.88102188    -0.39500
C2578       C  0.55517100  0.81152075  0.86317568     0.21300
N2579       N  0.55308347  0.80883304  0.83036128    -0.32800
C2580       C  0.54105195  0.79529063  0.83886888    -0.10300
C2581       C  0.54176976  0.79654081  0.85938669    -0.29100
N2582       N  0.58808157  0.84141376  0.89384354    -0.45700
C2583       C  0.60084294  0.85405715  0.88494973    -0.05000
C2584       C  0.59794497  0.85457745  0.86467435    -0.22400
H2585       H  0.58066231  0.83929265  0.82935504     0.19400
H2586       H  0.55856333  0.81244578  0.89512335     0.18200
H2587       H  0.53402891  0.78741833  0.87000195     0.14500
H2588       H  0.60692167  0.86211262  0.85379113     0.14400
H2589       H  0.55540549  0.81111574  0.81530646     0.32500
H2590       H  0.58783940  0.83740868  0.90872080     0.35300
C2591       C  0.41134695  0.32628191  0.61415290     0.20900
C2592       C  0.42630029  0.31183734  0.61283925    -0.39000
C2593       C  0.43613642  0.30730126  0.63055959     0.19900
C2594       C  0.43112827  0.31631808  0.64815432     0.22500
C2595       C  0.41650699  0.33096380  0.64937353    -0.39500
C2596       C  0.40694155  0.33570657  0.63169416     0.21300
N2597       N  0.39886806  0.33223042  0.59987872    -0.32800
C2598       C  0.38673654  0.34573540  0.60838531    -0.10300
C2599       C  0.39139787  0.34842532  0.62815230    -0.29100
N2600       N  0.44136498  0.30844888  0.66315960    -0.45700
C2601       C  0.45320945  0.29441905  0.65521867    -0.05000
C2602       C  0.45057810  0.29336610  0.63481246    -0.22400
H2603       H  0.42963707  0.30431991  0.59917851     0.19400
H2604       H  0.41249883  0.33779226  0.66321446     0.18200
H2605       H  0.38367280  0.35753774  0.63874120     0.14500
H2606       H  0.45755549  0.28320293  0.62467202     0.14400
H2607       H  0.39829214  0.32709932  0.58538202     0.32500
H2608       H  0.44011352  0.31218060  0.67803736     0.35300
C2609       C  0.41460258  0.43960354  0.53247640     0.20900
C2610       C  0.39467209  0.43347547  0.53325430    -0.39000
C2611       C  0.39016105  0.41879421  0.54732129     0.19900
C2612       C  0.40436224  0.41115286  0.55991838     0.22500
C2613       C  0.42432075  0.41698697  0.55888724    -0.39500
C2614       C  0.42889481  0.43133420  0.54456866     0.21300
N2615       N  0.42264526  0.45356297  0.52070414    -0.32800
C2616       C  0.44228097  0.45389819  0.52504110    -0.10300
C2617       C  0.44671853  0.44014385  0.53979157    -0.29100
N2618       N  0.39633202  0.39769272  0.57217997    -0.45700
C2619       C  0.37692255  0.39636894  0.56718528    -0.05000
C2620       C  0.37252161  0.40926521  0.55164212    -0.22400
H2621       H  0.38350271  0.43966132  0.52360001     0.19400
H2622       H  0.43549350  0.41078176  0.56852896     0.18200
H2623       H  0.46098365  0.43741274  0.54654412     0.14500
H2624       H  0.35834722  0.41137865  0.54450055     0.14400
H2625       H  0.41525249  0.46231997  0.51034902     0.32500
H2626       H  0.40374322  0.38945233  0.58293809     0.35300
C2627       C  0.56462216  0.41583125  0.40884232     0.20900
C2628       C  0.56199532  0.43578412  0.41384291    -0.39000
C2629       C  0.54786898  0.43952186  0.42851276     0.19900
C2630       C  0.53743754  0.42452313  0.43777187     0.22500
C2631       C  0.53979841  0.40461089  0.43248808    -0.39500
C2632       C  0.55365851  0.40089068  0.41755962     0.21300
N2633       N  0.57692745  0.40841346  0.39518693    -0.32800
C2634       C  0.57349313  0.38867282  0.39493526    -0.10300
C2635       C  0.55901816  0.38341077  0.40861088    -0.29100
N2636       N  0.52525459  0.43191688  0.45158223    -0.45700
C2637       C  0.52767925  0.45178322  0.45081527    -0.05000
C2638       C  0.54160133  0.45709858  0.43656849    -0.22400
H2639       H  0.57025349  0.44753071  0.40676189     0.19400
H2640       H  0.53137511  0.39288913  0.43940554     0.18200
H2641       H  0.55314275  0.36880190  0.41149439     0.14500
H2642       H  0.54668926  0.47182688  0.43287273     0.14400
H2643       H  0.58657063  0.41634684  0.38610148     0.32500
H2644       H  0.51574798  0.42398668  0.46080776     0.35300
C2645       C  0.41138573  0.66033712  0.34094725     0.20900
C2646       C  0.42522000  0.67439281  0.34745741    -0.39000
C2647       C  0.43430771  0.68577348  0.33266013     0.19900
C2648       C  0.42995500  0.68341081  0.31287248     0.22500
C2649       C  0.41603618  0.66941056  0.30638294    -0.39500
C2650       C  0.40698343  0.65799144  0.32119420     0.21300
N2651       N  0.40128007  0.64723071  0.35200958    -0.32800
C2652       C  0.39033452  0.63630606  0.33924074    -0.10300
C2653       C  0.39350037  0.64275688  0.31985745    -0.29100
N2654       N  0.44096487  0.69574034  0.30172866    -0.45700
C2655       C  0.45242614  0.70603844  0.31453391    -0.05000
C2656       C  0.44862418  0.70022107  0.33395028    -0.22400
H2657       H  0.42885827  0.67614705  0.36289138     0.19400
H2658       H  0.41270680  0.66735163  0.29091986     0.18200
H2659       H  0.38720490  0.63689626  0.30643160     0.14500
H2660       H  0.45556761  0.70570785  0.34723881     0.14400
H2661       H  0.40215738  0.64572354  0.36729153     0.32500
H2662       H  0.44078704  0.69697429  0.28638466     0.35300
C2663       C  0.41615781  0.56066818  0.39272759     0.20900
C2664       C  0.43086536  0.54627792  0.39569148    -0.39000
C2665       C  0.43597427  0.54249836  0.41540721     0.19900
C2666       C  0.42683429  0.55204829  0.43095759     0.22500
C2667       C  0.41242293  0.56670488  0.42797664    -0.39500
C2668       C  0.40759790  0.57075600  0.40827098     0.21300
N2669       N  0.40817406  0.56645267  0.37549529    -0.32800
C2670       C  0.39471849  0.58056086  0.38011615    -0.10300
C2671       C  0.39403444  0.58377594  0.40037692    -0.29100
N2672       N  0.43417803  0.54572317  0.44826747    -0.45700
C2673       C  0.44840952  0.53236169  0.44373931    -0.05000
C2674       C  0.44999602  0.52996166  0.42337276    -0.22400
H2675       H  0.43779850  0.53858550  0.38355366     0.19400
H2676       H  0.40546332  0.57437648  0.44011334     0.18200
H2677       H  0.38425057  0.59362848  0.40829252     0.14500
H2678       H  0.46021164  0.52054024  0.41548294     0.14400
H2679       H  0.41147312  0.56099885  0.36149005     0.32500
H2680       H  0.43027362  0.55073235  0.46228483     0.35300
C2681       C  0.46516976  0.58345421  0.56308846     0.20900
C2682       C  0.46785676  0.60112611  0.57367000    -0.39000
C2683       C  0.45108792  0.60815819  0.58376296     0.19900
C2684       C  0.43315022  0.59831460  0.58329450     0.22500
C2685       C  0.43045494  0.58079760  0.57271003    -0.39500
C2686       C  0.44708541  0.57384497  0.56263510     0.21300
N2687       N  0.47866909  0.57349645  0.55237508    -0.32800
C2688       C  0.46891234  0.55758266  0.54502636    -0.10300
C2689       C  0.44922747  0.55737589  0.55109932    -0.29100
N2690       N  0.41965034  0.60755557  0.59441732    -0.45700
C2691       C  0.42890092  0.62352877  0.60218707    -0.05000
C2692       C  0.44860001  0.62441100  0.59579698    -0.22400
H2693       H  0.48194498  0.60872971  0.57414181     0.19400
H2694       H  0.41642337  0.57307405  0.57242216     0.18200
H2695       H  0.43797597  0.54654856  0.54756566     0.14500
H2696       H  0.45973283  0.63523278  0.59964308     0.14400
H2697       H  0.49345033  0.57736840  0.55003783     0.32500
H2698       H  0.40518540  0.60275579  0.59687299     0.35300
C2699       C  0.44627232  0.68367156  0.68064783     0.20900
C2700       C  0.45787961  0.68259580  0.69766075    -0.39000
C2701       C  0.45771808  0.69939916  0.70956740     0.19900
C2702       C  0.44710430  0.71626887  0.70486687     0.22500
C2703       C  0.43534066  0.71733961  0.68777683    -0.39500
C2704       C  0.43525448  0.70027563  0.67593402     0.21300
N2705       N  0.44237374  0.66882399  0.66822239    -0.32800
C2706       C  0.42826016  0.67560039  0.65575209    -0.10300
C2707       C  0.42376459  0.69542103  0.65983386    -0.29100
N2708       N  0.44958716  0.73017496  0.71885648    -0.45700
C2709       C  0.46174180  0.72182768  0.73249471    -0.05000
C2710       C  0.46697484  0.70267180  0.72719900    -0.22400
H2711       H  0.46596038  0.66936215  0.70167786     0.19400
H2712       H  0.42644314  0.73019638  0.68430330     0.18200
H2713       H  0.41244898  0.70460829  0.65325362     0.14500
H2714       H  0.47665427  0.69259945  0.73503619     0.14400
H2715       H  0.44771544  0.65435657  0.66922496     0.32500
H2716       H  0.44355377  0.74439483  0.71905122     0.35300
C2717       C  0.59321982  0.36016311  0.67596840     0.20900
C2718       C  0.58588614  0.34882399  0.69175531    -0.39000
C2719       C  0.57106069  0.33508281  0.68698839     0.19900
C2720       C  0.56412616  0.33283367  0.66793359     0.22500
C2721       C  0.57140263  0.34422796  0.65217393    -0.39500
C2722       C  0.58622698  0.35796160  0.65695492     0.21300
N2723       N  0.60708766  0.37439128  0.67671794    -0.32800
C2724       C  0.60895206  0.38150435  0.65804396    -0.10300
C2725       C  0.59617190  0.37145467  0.64529559    -0.29100
N2726       N  0.55027683  0.31859408  0.66716902    -0.45700
C2727       C  0.54832748  0.31165876  0.68585558    -0.05000
C2728       C  0.56100275  0.32166978  0.69868062    -0.22400
H2729       H  0.59132679  0.35058092  0.70665518     0.19400
H2730       H  0.56592624  0.34251500  0.63728134     0.18200
H2731       H  0.59400529  0.37388458  0.62968707     0.14500
H2732       H  0.56281633  0.31926361  0.71435199     0.14400
H2733       H  0.61454909  0.37902175  0.68936088     0.32500
H2734       H  0.54269984  0.31378568  0.65463769     0.35300
C2735       C  0.56444430  0.47259135  0.57676483     0.20900
C2736       C  0.57899814  0.47617180  0.59115685    -0.39000
C2737       C  0.58657818  0.45939170  0.60085766     0.19900
C2738       C  0.58022674  0.44046258  0.59652687     0.22500
C2739       C  0.56562944  0.43686067  0.58216030    -0.39500
C2740       C  0.55802444  0.45365353  0.57247722     0.21300
N2741       N  0.55523421  0.48599220  0.56521194    -0.32800
C2742       C  0.54286350  0.47553588  0.55339970    -0.10300
C2743       C  0.54418143  0.45530957  0.55757392    -0.29100
N2744       N  0.59023068  0.42702543  0.60734329    -0.45700
C2745       C  0.60312968  0.43742403  0.61870749    -0.05000
C2746       C  0.60112683  0.45770596  0.61507398    -0.22400
H2747       H  0.58420471  0.49093899  0.59442239     0.19400
H2748       H  0.56073003  0.42205458  0.57860192     0.18200
H2749       H  0.53624878  0.44338567  0.55046603     0.14500
H2750       H  0.60960102  0.46965106  0.62146913     0.14400
H2751       H  0.55742160  0.50128220  0.56519340     0.32500
H2752       H  0.58839104  0.41171027  0.60682868     0.35300
C2753       C  0.68280951  0.45616989  0.67848775     0.20900
C2754       C  0.70000919  0.46768240  0.67694537    -0.39000
C2755       C  0.71268459  0.46730044  0.69329238     0.19900
C2756       C  0.70849897  0.45646131  0.71008821     0.22500
C2757       C  0.69132607  0.44470916  0.71156477    -0.39500
C2758       C  0.67869922  0.44490313  0.69501636     0.21300
N2759       N  0.66962338  0.45258966  0.66414038    -0.32800
C2760       C  0.65729028  0.43835220  0.67105759    -0.10300
C2761       C  0.66224366  0.43352078  0.69058201    -0.29100
N2762       N  0.72293798  0.45883893  0.72361584    -0.45700
C2763       C  0.73642167  0.47120027  0.71526105    -0.05000
C2764       C  0.73054785  0.47663708  0.69629809    -0.22400
H2765       H  0.70352561  0.47595374  0.66372917     0.19400
H2766       H  0.68830244  0.43567563  0.72440172     0.18200
H2767       H  0.65607519  0.42192944  0.69969312     0.14500
H2768       H  0.73810333  0.48651504  0.68623485     0.14400
H2769       H  0.67016719  0.45807307  0.64974254     0.32500
H2770       H  0.72348644  0.45261687  0.73771123     0.35300
C2771       C  0.58869525  0.68183892  0.38344994     0.20900
C2772       C  0.57568589  0.69798204  0.38465970    -0.39000
C2773       C  0.56591486  0.70309977  0.36713805     0.19900
C2774       C  0.56914226  0.69305212  0.34968912     0.22500
C2775       C  0.58187028  0.67664152  0.34856881    -0.39500
C2776       C  0.59144827  0.67134662  0.36617599     0.21300
N2777       N  0.60087909  0.67517732  0.39759843    -0.32800
C2778       C  0.61136520  0.66022681  0.38940551    -0.10300
C2779       C  0.60575229  0.65717468  0.36987066    -0.29100
N2780       N  0.55928899  0.70174838  0.33480758    -0.45700
C2781       C  0.54949322  0.71726108  0.34285150    -0.05000
C2782       C  0.55309619  0.71849645  0.36305150    -0.22400
H2783       H  0.57376990  0.70631012  0.39812277     0.19400
H2784       H  0.58457015  0.66894790  0.33486636     0.18200
H2785       H  0.61222763  0.64695405  0.35945754     0.14500
H2786       H  0.54773822  0.72961496  0.37317287     0.14400
H2787       H  0.60245463  0.68088901  0.41180234     0.32500
H2788       H  0.55935043  0.69750941  0.32001525     0.35300
C2789       C  0.59422644  0.58796721  0.43459611     0.20900
C2790       C  0.57756280  0.57602892  0.43141195    -0.39000
C2791       C  0.56933586  0.56728253  0.44828374     0.19900
C2792       C  0.57703576  0.57015572  0.46696664     0.22500
C2793       C  0.59381381  0.58203874  0.47012990    -0.39500
C2794       C  0.60205668  0.59081120  0.45320429     0.21300
N2795       N  0.60426448  0.59848347  0.42106226    -0.32800
C2796       C  0.61865945  0.60825118  0.43105373    -0.10300
C2797       C  0.61775702  0.60366772  0.45118132    -0.29100
N2798       N  0.56619985  0.56041461  0.48056624    -0.45700
C2799       C  0.55153660  0.55126588  0.47037960    -0.05000
C2800       C  0.55309456  0.55520315  0.45023232    -0.22400
H2801       H  0.57130541  0.57389424  0.41688164     0.19400
H2802       H  0.59985189  0.58448656  0.48469926     0.18200
H2803       H  0.62693751  0.60932226  0.46294899     0.14500
H2804       H  0.54354863  0.54994335  0.43854538     0.14400
H2805       H  0.60104535  0.59920063  0.40603800     0.32500
H2806       H  0.56865655  0.55996460  0.49575891     0.35300
C2807       C  0.20966740  0.45194205  0.78876377     0.20900
C2808       C  0.19637433  0.43598527  0.78978789    -0.39000
C2809       C  0.18067010  0.43809878  0.80319813     0.19900
C2810       C  0.17844612  0.45473654  0.81478181     0.22500
C2811       C  0.19172880  0.47067071  0.81376106    -0.39500
C2812       C  0.20733253  0.46863836  0.80027485     0.21300
N2813       N  0.22600486  0.45346556  0.77750081    -0.32800
C2814       C  0.23407194  0.47132018  0.78182132    -0.10300
C2815       C  0.22280139  0.48119123  0.79595105    -0.29100
N2816       N  0.16345724  0.45236531  0.82760524    -0.45700
C2817       C  0.15580459  0.43414102  0.82414136    -0.05000
C2818       C  0.16637846  0.42479175  0.80904954    -0.22400
H2819       H  0.19835877  0.42272105  0.78111951     0.19400
H2820       H  0.19026067  0.48354232  0.82309062     0.18200
H2821       H  0.22556478  0.49563283  0.80221682     0.14500
H2822       H  0.16495613  0.40962603  0.80420048     0.14400
H2823       H  0.23125161  0.44308186  0.76740525     0.32500
H2824       H  0.15968051  0.46197534  0.83902040     0.35300
C2825       C  0.30588525  0.42630235  0.67019059     0.20900
C2826       C  0.30540872  0.40689456  0.66278581    -0.39000
C2827       C  0.31836770  0.40293924  0.64705508     0.19900
C2828       C  0.33103005  0.41713595  0.63948126     0.22500
C2829       C  0.33114319  0.43662983  0.64654568    -0.39500
C2830       C  0.31800941  0.44065595  0.66205466     0.21300
N2831       N  0.29599687  0.43353924  0.68585034    -0.32800
C2832       C  0.30170703  0.45270535  0.68749427    -0.10300
C2833       C  0.31520494  0.45771405  0.67274386    -0.29100
N2834       N  0.34204041  0.40964782  0.62475343    -0.45700
C2835       C  0.33605490  0.39065690  0.62257204    -0.05000
C2836       C  0.32129915  0.38592900  0.63623563    -0.22400
H2837       H  0.29580820  0.39565478  0.66893348     0.19400
H2838       H  0.34090197  0.44781104  0.64054061     0.18200
H2839       H  0.32284912  0.47165669  0.67085134     0.14500
H2840       H  0.31352339  0.37201967  0.63778181     0.14400
H2841       H  0.28636967  0.42581633  0.69512654     0.32500
H2842       H  0.35236384  0.41722550  0.61612551     0.35300
C2843       C  0.36513675  0.56453848  0.69163218     0.20900
C2844       C  0.38185765  0.57682766  0.69062484    -0.39000
C2845       C  0.38259308  0.58977508  0.67441341     0.19900
C2846       C  0.36800641  0.59026205  0.66007402     0.22500
C2847       C  0.35132348  0.57793770  0.66105714    -0.39500
C2848       C  0.35044181  0.56519429  0.67740782     0.21300
N2849       N  0.36012920  0.55208347  0.70633947    -0.32800
C2850       C  0.34200321  0.54494385  0.70151109    -0.10300
C2851       C  0.33559278  0.55268745  0.68350746    -0.29100
N2852       N  0.37156924  0.60473409  0.64686273    -0.45700
C2853       C  0.38833951  0.61378252  0.65307506    -0.05000
C2854       C  0.39571743  0.60471643  0.67009986    -0.22400
H2855       H  0.39307104  0.57687837  0.70202890     0.19400
H2856       H  0.33952075  0.57873830  0.65028744     0.18200
H2857       H  0.32156530  0.55010330  0.67623433     0.14500
H2858       H  0.40863543  0.60889820  0.67856403     0.14400
H2859       H  0.36816523  0.54923284  0.71919460     0.32500
H2860       H  0.36262346  0.60884322  0.63497739     0.35300
C2861       C  0.32100827  0.39076579  0.08832702     0.20900
C2862       C  0.30467430  0.39207317  0.07558865    -0.39000
C2863       C  0.30155493  0.37570711  0.06334793     0.19900
C2864       C  0.31366172  0.35919909  0.06401378     0.22500
C2865       C  0.33025614  0.35806714  0.07646599    -0.39500
C2866       C  0.33351560  0.37455133  0.08854275     0.21300
N2867       N  0.32608705  0.40360678  0.10247404    -0.32800
C2868       C  0.34199359  0.39561415  0.11173087    -0.10300
C2869       C  0.34730532  0.37762315  0.10327308    -0.29100
N2870       N  0.30643635  0.34487284  0.05240039    -0.45700
C2871       C  0.28980614  0.35239304  0.04405877    -0.05000
C2872       C  0.28633723  0.37167454  0.05036102    -0.22400
H2873       H  0.29471918  0.40461256  0.07571146     0.19400
H2874       H  0.33951428  0.34502389  0.07720686     0.18200
H2875       H  0.35888595  0.36763214  0.10803613     0.14500
H2876       H  0.27375009  0.38095895  0.04690063     0.14400
H2877       H  0.31886369  0.41681078  0.10591191     0.32500
H2878       H  0.31214759  0.33063029  0.05065260     0.35300
C2879       C  0.41330830  0.45583667  0.10646080     0.20900
C2880       C  0.42827054  0.46991508  0.10305401    -0.39000
C2881       C  0.43479976  0.47168195  0.08343912     0.19900
C2882       C  0.42672940  0.46056757  0.06833389     0.22500
C2883       C  0.41202245  0.44628591  0.07178885    -0.39500
C2884       C  0.40579850  0.44424253  0.09142808     0.21300
N2885       N  0.40459193  0.45126746  0.12374245    -0.32800
C2886       C  0.39179398  0.43634369  0.11971751    -0.10300
C2887       C  0.39214532  0.43157344  0.09973630    -0.29100
N2888       N  0.43520542  0.46521593  0.05098914    -0.45700
C2889       C  0.44905553  0.47915211  0.05505008    -0.05000
C2890       C  0.44930690  0.48350406  0.07517518    -0.22400
H2891       H  0.43445653  0.47875500  0.11481958     0.19400
H2892       H  0.40595336  0.43732185  0.06005485     0.18200
H2893       H  0.38332631  0.42053067  0.09225414     0.14500
H2894       H  0.45877894  0.49395054  0.08271001     0.14400
H2895       H  0.40735981  0.45768116  0.13745695     0.32500
H2896       H  0.43206862  0.45897215  0.03727229     0.35300
C2897       C  0.58322050  0.64277959  0.81801167     0.20900
C2898       C  0.56792736  0.64790593  0.80486288    -0.39000
C2899       C  0.56309601  0.66811734  0.80395833     0.19900
C2900       C  0.57310075  0.68215131  0.81494414     0.22500
C2901       C  0.58817886  0.67698519  0.82826611    -0.39500
C2902       C  0.59266562  0.65676057  0.82953894     0.21300
N2903       N  0.59062765  0.62464545  0.82159063    -0.32800
C2904       C  0.60454743  0.62706779  0.83581036    -0.10300
C2905       C  0.60621929  0.64686845  0.84118276    -0.29100
N2906       N  0.56546704  0.70025322  0.81183593    -0.45700
C2907       C  0.55016565  0.69777121  0.79913884    -0.05000
C2908       C  0.54822032  0.67789580  0.79386274    -0.22400
H2909       H  0.56015231  0.63693559  0.79622560     0.19400
H2910       H  0.59565416  0.68789697  0.83723040     0.18200
H2911       H  0.61647332  0.65322149  0.85166999     0.14500
H2912       H  0.53702442  0.67140534  0.78447011     0.14400
H2913       H  0.58655018  0.61143211  0.81475950     0.32500
H2914       H  0.56970365  0.71335520  0.81878533     0.35300
C2915       C  0.56691886  0.53919599  0.92349934     0.20900
C2916       C  0.58083690  0.53568460  0.90850854    -0.39000
C2917       C  0.58839739  0.55259080  0.89901760     0.19900
C2918       C  0.58245912  0.57150226  0.90394936     0.22500
C2919       C  0.56842598  0.57499860  0.91878760    -0.39500
C2920       C  0.56098923  0.55814520  0.92838031     0.21300
N2921       N  0.55788330  0.52574572  0.93510660    -0.32800
C2922       C  0.54612271  0.53624109  0.94747981    -0.10300
C2923       C  0.54767813  0.55648365  0.94366494    -0.29100
N2924       N  0.59229112  0.58507940  0.89322095    -0.45700
C2925       C  0.60473298  0.57482398  0.88132427    -0.05000
C2926       C  0.60257643  0.55444876  0.88452578    -0.22400
H2927       H  0.58567056  0.52091477  0.90473238     0.19400
H2928       H  0.56387072  0.58979088  0.92280530     0.18200
H2929       H  0.54009078  0.56840744  0.95111850     0.14500
H2930       H  0.61051835  0.54248840  0.87754041     0.14400
H2931       H  0.55960484  0.51040426  0.93463702     0.32500
H2932       H  0.59064274  0.60038726  0.89418396     0.35300
C2933       C  0.68096492  0.57091760  0.80648594     0.20900
C2934       C  0.69715097  0.57440630  0.79399322    -0.39000
C2935       C  0.70989950  0.55830723  0.79110554     0.19900
C2936       C  0.70670370  0.54012520  0.79995186     0.22500
C2937       C  0.69051655  0.53664875  0.81244167    -0.39500
C2938       C  0.67778423  0.55275792  0.81535178     0.21300
N2939       N  0.66793491  0.58430042  0.81311614    -0.32800
C2940       C  0.65642580  0.57475735  0.82647123    -0.10300
C2941       C  0.66203273  0.55490523  0.82807109    -0.29100
N2942       N  0.72124110  0.52741093  0.79533533    -0.45700
C2943       C  0.73383256  0.53754269  0.78348368    -0.05000
C2944       C  0.72725572  0.55689944  0.78050975    -0.22400
H2945       H  0.69993823  0.58876751  0.78748724     0.19400
H2946       H  0.68833431  0.52260980  0.81981923     0.18200
H2947       H  0.65667938  0.54392894  0.83837875     0.14500
H2948       H  0.73425555  0.56838509  0.77183672     0.14400
H2949       H  0.66780808  0.59941034  0.80987448     0.32500
H2950       H  0.72257732  0.51275977  0.80006690     0.35300
C2951       C  0.43675241  0.70077853  0.86118576     0.20900
C2952       C  0.42417618  0.70029842  0.87757431    -0.39000
C2953       C  0.41166026  0.68382373  0.87884935     0.19900
C2954       C  0.41173521  0.66880890  0.86501998     0.22500
C2955       C  0.42434571  0.66928257  0.84860637    -0.39500
C2956       C  0.43678000  0.68586222  0.84723869     0.21300
N2957       N  0.44903514  0.71548847  0.85589875    -0.32800
C2958       C  0.45682145  0.70995977  0.83837248    -0.10300
C2959       C  0.44964738  0.69151375  0.83257078    -0.29100
N2960       N  0.39762542  0.65535294  0.86909349    -0.45700
C2961       C  0.38833275  0.66208880  0.88544657    -0.05000
C2962       C  0.39682139  0.67970036  0.89201903    -0.22400
H2963       H  0.42369269  0.71219852  0.88820001     0.19400
H2964       H  0.42406534  0.65791116  0.83741538     0.18200
H2965       H  0.45278919  0.68369207  0.81903332     0.14500
H2966       H  0.39240888  0.68860703  0.90449055     0.14400
H2967       H  0.45137955  0.72877692  0.86336189     0.32500
H2968       H  0.39396822  0.64289885  0.86077952     0.35300
C2969       C  0.32106081  0.59668323  0.85121035     0.20900
C2970       C  0.30522847  0.58727165  0.84150562    -0.39000
C2971       C  0.31046234  0.57429236  0.82619153     0.19900
C2972       C  0.32997987  0.57091542  0.82104325     0.22500
C2973       C  0.34577582  0.58028586  0.83076496    -0.39500
C2974       C  0.34053605  0.59328193  0.84600758     0.21300
N2975       N  0.32005439  0.60963143  0.86622533    -0.32800
C2976       C  0.33906094  0.61455438  0.87070068    -0.10300
C2977       C  0.35221290  0.60457664  0.85831146    -0.29100
N2978       N  0.33109509  0.55801372  0.80602519    -0.45700
C2979       C  0.31215950  0.55311156  0.80142386    -0.05000
C2980       C  0.29885353  0.56297719  0.81374080    -0.22400
H2981       H  0.28996151  0.58989658  0.84554821     0.19400
H2982       H  0.36104777  0.57765861  0.82674036     0.18200
H2983       H  0.36819711  0.60536081  0.85819952     0.14500
H2984       H  0.28286436  0.56200855  0.81359605     0.14400
H2985       H  0.30714839  0.61453005  0.87310552     0.32500
H2986       H  0.34399446  0.55291095  0.79925011     0.35300
C2987       C  0.41569092  0.56721180  0.96131476     0.20900
C2988       C  0.39583842  0.57341187  0.96018193    -0.39000
C2989       C  0.39156014  0.58756071  0.94555480     0.19900
C2990       C  0.40586429  0.59455296  0.93271419     0.22500
C2991       C  0.42571066  0.58853774  0.93399294    -0.39500
C2992       C  0.43007996  0.57482788  0.94892908     0.21300
N2993       N  0.42367818  0.55417050  0.97409138    -0.32800
C2994       C  0.44334900  0.55385180  0.97006310    -0.10300
C2995       C  0.44788856  0.56658415  0.95450701    -0.29100
N2996       N  0.39818902  0.60811469  0.92037401    -0.45700
C2997       C  0.37895267  0.61017624  0.92563123    -0.05000
C2998       C  0.37423602  0.59757477  0.94128692    -0.22400
H2999       H  0.38463969  0.56792364  0.97019248     0.19400
H3000       H  0.43700699  0.59440544  0.92430717     0.18200
H3001       H  0.46225287  0.56916785  0.94793479     0.14500
H3002       H  0.36013860  0.59617178  0.94871920     0.14400
H3003       H  0.41627804  0.54616193  0.98501127     0.32500
H3004       H  0.40579604  0.61612190  0.90959231     0.35300
C3005       C  0.30879293  0.69084461  0.92952549     0.20900
C3006       C  0.29765743  0.70812882  0.92643119    -0.39000
C3007       C  0.29468833  0.72005094  0.94307955     0.19900
C3008       C  0.30231955  0.71520054  0.96139507     0.22500
C3009       C  0.31350536  0.69794297  0.96446290    -0.39500
C3010       C  0.31636813  0.68594587  0.94782884     0.21300
N3011       N  0.31505832  0.67797910  0.91581019    -0.32800
C3012       C  0.32677048  0.66468917  0.92531034    -0.10300
C3013       C  0.32783311  0.66923780  0.94540944    -0.29100
N3014       N  0.29771220  0.72914581  0.97474517    -0.45700
C3015       C  0.28701849  0.74297335  0.96487303    -0.05000
C3016       C  0.28484902  0.73779816  0.94507283    -0.22400
H3017       H  0.29205036  0.71219605  0.91203358     0.19400
H3018       H  0.31985670  0.69432432  0.97866952     0.18200
H3019       H  0.33715536  0.66246305  0.95648991     0.14500
H3020       H  0.27705563  0.74590441  0.93368793     0.14400
H3021       H  0.31273547  0.67903035  0.90062198     0.32500
H3022       H  0.30152859  0.72920243  0.98966637     0.35300
C3023       C  0.32463173  0.33952003  0.93242531     0.20900
C3024       C  0.33511884  0.35537146  0.92405476    -0.39000
C3025       C  0.35026730  0.35026455  0.91089432     0.19900
C3026       C  0.35463642  0.33084804  0.90633722     0.22500
C3027       C  0.34408869  0.31492033  0.91470407    -0.39500
C3028       C  0.32890622  0.32003368  0.92795815     0.21300
N3029       N  0.30975651  0.34059546  0.94549647    -0.32800
C3030       C  0.30437030  0.32168732  0.94951747    -0.10300
C3031       C  0.31599922  0.30838283  0.93881652    -0.29100
N3032       N  0.36983775  0.33000950  0.89352530    -0.45700
C3033       C  0.37524945  0.34906467  0.88988068    -0.05000
C3034       C  0.36327041  0.36206646  0.90052690    -0.22400
H3035       H  0.33179204  0.37060040  0.92762968     0.19400
H3036       H  0.34751403  0.29969044  0.91123030     0.18200
H3037       H  0.31517786  0.29240219  0.93901553     0.14500
H3038       H  0.36383524  0.37803984  0.90075414     0.14400
H3039       H  0.30366454  0.35348508  0.95139221     0.32500
H3040       H  0.37617229  0.31716400  0.88782806     0.35300
C3041       C  0.38238827  0.42141544  0.82208971     0.20900
C3042       C  0.38335440  0.43356169  0.80532234    -0.39000
C3043       C  0.36541784  0.44204739  0.79933641     0.19900
C3044       C  0.34785103  0.43846012  0.80920424     0.22500
C3045       C  0.34695699  0.42666522  0.82623123    -0.39500
C3046       C  0.36493995  0.41831198  0.83234197     0.21300
N3047       N  0.39678287  0.40975159  0.82914324    -0.32800
C3048       C  0.38850323  0.39910912  0.84393298    -0.10300
C3049       C  0.36875513  0.40431614  0.84671341    -0.29100
N3050       N  0.33268054  0.44724464  0.79991338    -0.45700
C3051       C  0.34067412  0.45679602  0.78425760    -0.05000
C3052       C  0.36109355  0.45401663  0.78340595    -0.22400
H3053       H  0.39693415  0.43564662  0.79712397     0.19400
H3054       H  0.33314460  0.42359821  0.83370697     0.18200
H3055       H  0.35816117  0.39730982  0.85643964     0.14500
H3056       H  0.37128704  0.45972408  0.77249003     0.14400
H3057       H  0.41101414  0.40811689  0.82335929     0.32500
H3058       H  0.31781124  0.44703206  0.80412405     0.35300
C3059       C  0.45381431  0.40655793  0.90783545     0.20900
C3060       C  0.47138355  0.41644910  0.91325531    -0.39000
C3061       C  0.46951864  0.43048063  0.92848259     0.19900
C3062       C  0.45150724  0.43428130  0.93740252     0.22500
C3063       C  0.43410815  0.42440523  0.93205930    -0.39500
C3064       C  0.43597566  0.41046666  0.91699329     0.21300
N3065       N  0.45128536  0.39311384  0.89340771    -0.32800
C3066       C  0.43164661  0.38860067  0.89337808    -0.10300
C3067       C  0.42174644  0.39908482  0.90803270    -0.29100
N3068       N  0.45333616  0.44830116  0.95120294    -0.45700
C3069       C  0.47267688  0.45356931  0.95138758    -0.05000
C3070       C  0.48333849  0.44277059  0.93736242    -0.22400
H3071       H  0.48537682  0.41356850  0.90606170     0.19400
H3072       H  0.42003873  0.42753223  0.93900316     0.18200
H3073       H  0.40613773  0.39880674  0.91154360     0.14500
H3074       H  0.49898177  0.44379928  0.93409649     0.14400
H3075       H  0.46213296  0.38792992  0.88376566     0.32500
H3076       H  0.44203306  0.45388393  0.96009037     0.35300
C3077       C  0.44959640  0.32417515  0.81865086     0.20900
C3078       C  0.46721041  0.31918164  0.80881565    -0.39000
C3079       C  0.46496232  0.30800659  0.79151078     0.19900
C3080       C  0.44657927  0.30221754  0.78459161     0.22500
C3081       C  0.42900833  0.30724790  0.79437285    -0.39500
C3082       C  0.43126292  0.31842200  0.81161656     0.21300
N3083       N  0.44762119  0.33576289  0.83464429    -0.32800
C3084       C  0.42782764  0.33753045  0.83774642    -0.10300
C3085       C  0.41723687  0.32677353  0.82368557    -0.29100
N3086       N  0.44831794  0.29221673  0.76758558    -0.45700
C3087       C  0.46794566  0.29170007  0.76349647    -0.05000
C3088       C  0.47882738  0.30135375  0.77813619    -0.22400
H3089       H  0.48156612  0.32401251  0.81400920     0.19400
H3090       H  0.41459870  0.30313658  0.78872658     0.18200
H3091       H  0.40132594  0.32614788  0.82189246     0.14500
H3092       H  0.49470472  0.30339944  0.77879004     0.14400
H3093       H  0.45909040  0.34283298  0.84214096     0.32500
H3094       H  0.43681571  0.28634863  0.75912549     0.35300
C3095       C  0.55814877  0.60087683  0.09114727     0.20900
C3096       C  0.55557509  0.58079460  0.08677843    -0.39000
C3097       C  0.54201814  0.57652482  0.07173675     0.19900
C3098       C  0.53197774  0.59111513  0.06146530     0.22500
C3099       C  0.53424477  0.61129487  0.06614146    -0.39500
C3100       C  0.54761485  0.61557705  0.08152382     0.21300
N3101       N  0.57031473  0.60863206  0.10475633    -0.32800
C3102       C  0.56731415  0.62841807  0.10420455    -0.10300
C3103       C  0.55316428  0.63337565  0.08996399    -0.29100
N3104       N  0.52073684  0.58305265  0.04710824    -0.45700
C3105       C  0.52349331  0.56319425  0.04855637    -0.05000
C3106       C  0.53653129  0.55863603  0.06384709    -0.22400
H3107       H  0.56364952  0.56930254  0.09447403     0.19400
H3108       H  0.52628275  0.62279292  0.05834435     0.18200
H3109       H  0.54779730  0.64799210  0.08623865     0.14500
H3110       H  0.54183152  0.54415188  0.06816310     0.14400
H3111       H  0.57977602  0.60089879  0.11421525     0.32500
H3112       H  0.51186864  0.59055274  0.03692552     0.35300
C3113       C  0.56763260  0.70064837  0.18282178     0.20900
C3114       C  0.57147714  0.71403724  0.19821398    -0.39000
C3115       C  0.55585639  0.71718008  0.21152764     0.19900
C3116       C  0.53782108  0.70768240  0.20960384     0.22500
C3117       C  0.53401599  0.69428071  0.19426620    -0.39500
C3118       C  0.54960104  0.69118318  0.18094706     0.21300
N3119       N  0.58045069  0.69402688  0.16918498    -0.32800
C3120       C  0.57054817  0.68037680  0.15827987    -0.10300
C3121       C  0.55125019  0.67811692  0.16542387    -0.29100
N3122       N  0.52560545  0.71266770  0.22440891    -0.45700
C3123       C  0.53588403  0.72537433  0.23598998    -0.05000
C3124       C  0.55484396  0.72861116  0.22838314    -0.22400
H3125       H  0.58572885  0.72113727  0.19994753     0.19400
H3126       H  0.52007191  0.68649764  0.19304646     0.18200
H3127       H  0.54032820  0.66737127  0.16083098     0.14500
H3128       H  0.56635665  0.73792727  0.23443927     0.14400
H3129       H  0.59542198  0.69772738  0.16813300     0.32500
H3130       H  0.51119069  0.70753915  0.22662324     0.35300
C3131       C  0.60178026  0.42009108  0.04928520     0.20900
C3132       C  0.59311336  0.42653587  0.03154161    -0.39000
C3133       C  0.57750215  0.44013539  0.03338378     0.19900
C3134       C  0.57110662  0.44684383  0.05153688     0.22500
C3135       C  0.57982551  0.44047725  0.06926826    -0.39500
C3136       C  0.59535836  0.42680561  0.06740899     0.21300
N3137       N  0.61601749  0.40635767  0.05153061    -0.32800
C3138       C  0.61863193  0.40409171  0.07126689    -0.10300
C3139       C  0.60606477  0.41681524  0.08161416    -0.29100
N3140       N  0.55585235  0.45942869  0.04937278    -0.45700
C3141       C  0.55245041  0.46083484  0.02969520    -0.05000
C3142       C  0.56568145  0.44896832  0.01922312    -0.22400
H3143       H  0.59793114  0.42107400  0.01735830     0.19400
H3144       H  0.57462701  0.44549491  0.08348542     0.18200
H3145       H  0.60438563  0.41820835  0.09739360     0.14500
H3146       H  0.56654997  0.44708103  0.00341625     0.14400
H3147       H  0.62283505  0.39844013  0.04023336     0.32500
H3148       H  0.54822371  0.46665801  0.06063493     0.35300
C3149       C  0.68875548  0.32260777  0.06761671     0.20900
C3150       C  0.69961886  0.30521494  0.07071745    -0.39000
C3151       C  0.70539820  0.29507123  0.05370296     0.19900
C3152       C  0.70072677  0.30167915  0.03495110     0.22500
C3153       C  0.68994153  0.31922976  0.03183829    -0.39500
C3154       C  0.68413484  0.32943555  0.04893998     0.21300
N3155       N  0.68013551  0.33383610  0.08142558    -0.32800
C3156       C  0.66975893  0.34797236  0.07167522    -0.10300
C3157       C  0.67211528  0.34583360  0.05127511    -0.29100
N3158       N  0.70717737  0.28876190  0.02129555    -0.45700
C3159       C  0.71602954  0.27389296  0.03150652    -0.05000
C3160       C  0.71524723  0.27738956  0.05173511    -0.22400
H3161       H  0.70281814  0.29965702  0.08535071     0.19400
H3162       H  0.68585259  0.32423669  0.01723077     0.18200
H3163       H  0.66492731  0.35411537  0.03965016     0.14500
H3164       H  0.72080887  0.26803312  0.06346345     0.14400
H3165       H  0.68035743  0.33137181  0.09662941     0.32500
H3166       H  0.70549395  0.28988695  0.00603071     0.35300
C3167       C  0.03753599  0.59297566  0.43761438     0.20900
C3168       C  0.03987077  0.61313367  0.43298446    -0.39000
C3169       C  0.05216416  0.61732020  0.41677244     0.19900
C3170       C  0.06170732  0.60256575  0.40632491     0.22500
C3171       C  0.05911906  0.58249597  0.41073644    -0.39500
C3172       C  0.04658050  0.57832253  0.42662259     0.21300
N3173       N  0.02661583  0.58496261  0.45220855    -0.32800
C3174       C  0.02852552  0.56509198  0.45014608    -0.10300
C3175       C  0.04081772  0.56044999  0.43434879    -0.29100
N3176       N  0.07260516  0.61025834  0.39166202    -0.45700
C3177       C  0.06969607  0.63003236  0.39243932    -0.05000
C3178       C  0.05698692  0.63506290  0.40785318    -0.22400
H3179       H  0.03252437  0.62466632  0.44124105     0.19400
H3180       H  0.06622408  0.57094547  0.40229411     0.18200
H3181       H  0.04517754  0.54589778  0.42935997     0.14500
H3182       H  0.05188582  0.64967883  0.41185546     0.14400
H3183       H  0.01828266  0.59248774  0.46275745     0.32500
H3184       H  0.08096476  0.60249863  0.38129822     0.35300
C3185       C  0.04376600  0.69110766  0.31806616     0.20900
C3186       C  0.02788901  0.69079973  0.30462232    -0.39000
C3187       C  0.02848632  0.70515542  0.28960995     0.19900
C3188       C  0.04380758  0.71865498  0.28810389     0.22500
C3189       C  0.05955045  0.71904231  0.30159659    -0.39500
C3190       C  0.05890535  0.70478533  0.31662149     0.21300
N3191       N  0.04787510  0.67768674  0.33214815    -0.32800
C3192       C  0.06573789  0.68280348  0.33984132    -0.10300
C3193       C  0.07299490  0.69973994  0.33044733    -0.29100
N3194       N  0.04164953  0.72998908  0.27196443    -0.45700
C3195       C  0.02477996  0.72381339  0.26308113    -0.05000
C3196       C  0.01604985  0.70838090  0.27372110    -0.22400
H3197       H  0.01632063  0.67975145  0.30537301     0.19400
H3198       H  0.07181525  0.72922480  0.30005711     0.18200
H3199       H  0.08750370  0.70631820  0.33202143     0.14500
H3200       H  0.00267832  0.70035380  0.27009496     0.14400
H3201       H  0.03980247  0.66486989  0.33520366     0.32500
H3202       H  0.05117059  0.74119465  0.26720740     0.35300
C3203       C  0.88232492  0.41599604  0.68099889     0.20900
C3204       C  0.88072665  0.42588712  0.69907948    -0.39000
C3205       C  0.86587987  0.44029808  0.70017358     0.19900
C3206       C  0.85347347  0.44442383  0.68445675     0.22500
C3207       C  0.85516632  0.43459289  0.66626902    -0.39500
C3208       C  0.87014355  0.42021265  0.66514433     0.21300
N3209       N  0.89497913  0.40142603  0.67654094    -0.32800
C3210       C  0.89096958  0.39616631  0.65766316    -0.10300
C3211       C  0.87559411  0.40768973  0.64996929    -0.29100
N3212       N  0.84001593  0.45812169  0.68956141    -0.45700
C3213       C  0.84392880  0.46282806  0.70861678    -0.05000
C3214       C  0.86005525  0.45206828  0.71571914    -0.22400
H3215       H  0.89020703  0.42241603  0.71148184     0.19400
H3216       H  0.84539135  0.43773570  0.65400902     0.18200
H3217       H  0.86899153  0.40675839  0.63546639     0.14500
H3218       H  0.86621895  0.45230476  0.73044507     0.14400
H3219       H  0.90577358  0.39558389  0.68589546     0.32500
H3220       H  0.82863958  0.46369818  0.68071647     0.35300
C3221       C  0.95649704  0.40955530  0.59038392     0.20900
C3222       C  0.97420376  0.41804749  0.58337311    -0.39000
C3223       C  0.97204165  0.43289975  0.56894429     0.19900
C3224       C  0.95363324  0.43876963  0.56214888     0.22500
C3225       C  0.93601827  0.43032397  0.56914455    -0.39500
C3226       C  0.93818987  0.41552668  0.58347958     0.21300
N3227       N  0.95442675  0.39531882  0.60415942    -0.32800
C3228       C  0.93461608  0.39224452  0.60609279    -0.10300
C3229       C  0.92408976  0.40460882  0.59330528    -0.29100
N3230       N  0.95539679  0.45303720  0.54848327    -0.45700
C3231       C  0.97506905  0.45640698  0.54638891    -0.05000
C3232       C  0.98599356  0.44411403  0.55895666    -0.22400
H3233       H  0.98857331  0.41344149  0.58874997     0.19400
H3234       H  0.92163924  0.43496842  0.56381780     0.18200
H3235       H  0.90824101  0.40562757  0.59132610     0.14500
H3236       H  0.00192192  0.44344665  0.56053614     0.14400
H3237       H  0.96584886  0.38840288  0.61192288     0.32500
H3238       H  0.94384332  0.46005855  0.54098590     0.35300
C3239       C  0.95348906  0.32522515  0.67940746     0.20900
C3240       C  0.96900741  0.32335903  0.69303878    -0.39000
C3241       C  0.96625432  0.30917517  0.70791017     0.19900
C3242       C  0.94925847  0.29782460  0.70928422     0.22500
C3243       C  0.93375767  0.29963954  0.69561123    -0.39500
C3244       C  0.93660776  0.31371991  0.68062717     0.21300
N3245       N  0.95170029  0.33889134  0.66507160    -0.32800
C3246       C  0.93360766  0.33601565  0.65686584    -0.10300
C3247       C  0.92378027  0.32045734  0.66637537    -0.29100
N3248       N  0.94992067  0.28605324  0.72529824    -0.45700
C3249       C  0.96754189  0.28988499  0.73408268    -0.05000
C3250       C  0.97814497  0.30415747  0.72361156    -0.22400
H3251       H  0.98204794  0.33263564  0.69242217     0.19400
H3252       H  0.92024323  0.29113250  0.69686322     0.18200
H3253       H  0.90856459  0.31587889  0.66434479     0.14500
H3254       H  0.99252681  0.31023694  0.72717706     0.14400
H3255       H  0.96155358  0.35042173  0.66212901     0.32500
H3256       H  0.93909664  0.27604811  0.72994446     0.35300
C3257       C  0.91732711  0.45586591  0.39216906     0.20900
C3258       C  0.93281054  0.46959416  0.39466239    -0.39000
C3259       C  0.93890102  0.47289357  0.41424538     0.19900
C3260       C  0.92993315  0.46350806  0.43003956     0.22500
C3261       C  0.91476682  0.44960018  0.42752282    -0.39500
C3262       C  0.90899195  0.44602567  0.40803217     0.21300
N3263       N  0.90851962  0.45031946  0.37521940    -0.32800
C3264       C  0.89482023  0.43659717  0.38044528    -0.10300
C3265       C  0.89477290  0.43347569  0.40072685    -0.29100
N3266       N  0.93813008  0.46920567  0.44713724    -0.45700
C3267       C  0.95275094  0.48205427  0.44235274    -0.05000
C3268       C  0.95374171  0.48473714  0.42191986    -0.22400
H3269       H  0.93962751  0.47709463  0.38230377     0.19400
H3270       H  0.90798251  0.44204919  0.43987125     0.18200
H3271       H  0.88513845  0.42377720  0.40905529     0.14500
H3272       H  0.96397692  0.49398615  0.41380998     0.14400
H3273       H  0.91159895  0.45549216  0.36103412     0.32500
H3274       H  0.93436229  0.46421000  0.46122275     0.35300
C3275       C  0.84033984  0.59259712  0.64807970     0.20900
C3276       C  0.83934838  0.57297551  0.65481540    -0.39000
C3277       C  0.82722253  0.56964096  0.67128436     0.19900
C3278       C  0.81721989  0.58475556  0.68071652     0.22500
C3279       C  0.81798407  0.60438271  0.67380450    -0.39500
C3280       C  0.82973417  0.60763806  0.65698459     0.21300
N3281       N  0.85000418  0.59934851  0.63208858    -0.32800
C3282       C  0.84514498  0.61871255  0.63044915    -0.10300
C3283       C  0.83253127  0.62445092  0.64571036    -0.29100
N3284       N  0.80689345  0.57766716  0.69620112    -0.45700
C3285       C  0.80999776  0.55782995  0.69630694    -0.05000
C3286       C  0.82259401  0.55232016  0.68097992    -0.22400
H3287       H  0.84713613  0.56108728  0.64751144     0.19400
H3288       H  0.80971234  0.61616339  0.68074616     0.18200
H3289       H  0.82586294  0.63883002  0.64789209     0.14500
H3290       H  0.82794502  0.53762520  0.67761928     0.14400
H3291       H  0.85852147  0.59107284  0.62226664     0.32500
H3292       H  0.79815379  0.58576674  0.70597222     0.35300
C3293       C  0.89646001  0.59145567  0.55354960     0.20900
C3294       C  0.89897484  0.57712575  0.53878487    -0.39000
C3295       C  0.91853071  0.57087761  0.53550661     0.19900
C3296       C  0.93436388  0.57867542  0.54585901     0.22500
C3297       C  0.93181903  0.59276420  0.56080898    -0.39500
C3298       C  0.91224748  0.59868302  0.56437214     0.21300
N3299       N  0.87946732  0.60009797  0.55921144    -0.32800
C3300       C  0.88443104  0.61263321  0.57398206    -0.10300
C3301       C  0.90473129  0.61209703  0.57768967    -0.29100
N3302       N  0.95144928  0.57049148  0.53989674    -0.45700
C3303       C  0.94650617  0.55707080  0.52592569    -0.05000
C3304       C  0.92606976  0.55682770  0.52279189    -0.22400
H3305       H  0.88661441  0.57123621  0.53051128     0.19400
H3306       H  0.94417577  0.59864260  0.56909855     0.18200
H3307       H  0.91295839  0.62093425  0.58815557     0.14500
H3308       H  0.91786322  0.54756087  0.51269193     0.14400
H3309       H  0.86537829  0.59772640  0.55331838     0.32500
H3310       H  0.96558207  0.57340929  0.54543354     0.35300
C3311       C  0.10240241  0.41812713  0.45126103     0.20900
C3312       C  0.09453820  0.42589453  0.46882791    -0.39000
C3313       C  0.07969550  0.44033123  0.46655127     0.19900
C3314       C  0.07329434  0.44654804  0.44817547     0.22500
C3315       C  0.08119091  0.43885437  0.43067696    -0.39500
C3316       C  0.09592296  0.42441267  0.43296419     0.21300
N3317       N  0.11614812  0.40382408  0.44935248    -0.32800
C3318       C  0.11838915  0.40089178  0.42965149    -0.10300
C3319       C  0.10601437  0.41361953  0.41903037    -0.29100
N3320       N  0.05874072  0.45997499  0.44987414    -0.45700
C3321       C  0.05569302  0.46238001  0.46947811    -0.05000
C3322       C  0.06856644  0.45040702  0.48038839    -0.22400
H3323       H  0.09940294  0.42086523  0.48319070     0.19400
H3324       H  0.07601569  0.44355354  0.41630894     0.18200
H3325       H  0.10432562  0.41483613  0.40323183     0.14500
H3326       H  0.06946762  0.44906055  0.49625848     0.14400
H3327       H  0.12318617  0.39629626  0.46083237     0.32500
H3328       H  0.05115773  0.46691017  0.43834763     0.35300
C3329       C  0.09407811  0.55858120  0.59532397     0.20900
C3330       C  0.08796972  0.54091856  0.58634278    -0.39000
C3331       C  0.07312426  0.54278000  0.57200894     0.19900
C3332       C  0.06508442  0.56090302  0.56691636     0.22500
C3333       C  0.07131234  0.57862767  0.57582181    -0.39500
C3334       C  0.08612111  0.57673539  0.59027557     0.21300
N3335       N  0.10765912  0.56058224  0.60961158    -0.32800
C3336       C  0.10847524  0.58017750  0.61388716    -0.10300
C3337       C  0.09526623  0.59076853  0.60198066    -0.29100
N3338       N  0.05100481  0.55864040  0.55308153    -0.45700
C3339       C  0.05002072  0.53893922  0.54935315    -0.05000
C3340       C  0.06364546  0.52856297  0.56088423    -0.22400
H3341       H  0.09418237  0.52672484  0.59039276     0.19400
H3342       H  0.06496690  0.59280212  0.57191535     0.18200
H3343       H  0.09253733  0.60652948  0.60195279     0.14500
H3344       H  0.06620261  0.51276618  0.56115768     0.14400
H3345       H  0.11596653  0.54914375  0.61582762     0.32500
H3346       H  0.04249558  0.56982453  0.54664122     0.35300
C3347       C  0.21167356  0.54169969  0.69260532     0.20900
C3348       C  0.20095497  0.54233931  0.67495546    -0.39000
C3349       C  0.18430768  0.55463240  0.67495692     0.19900
C3350       C  0.17870194  0.56548623  0.69128268     0.22500
C3351       C  0.18929930  0.56461038  0.70909504    -0.39500
C3352       C  0.20603049  0.55229989  0.70909684     0.21300
N3353       N  0.22880478  0.53223913  0.69581415    -0.32800
C3354       C  0.23418760  0.53677571  0.71448964    -0.10300
C3355       C  0.22026842  0.54913289  0.72336863    -0.29100
N3356       N  0.16385073  0.57790640  0.68669264    -0.45700
C3357       C  0.16018079  0.57508597  0.66720758    -0.05000
C3358       C  0.17240220  0.56035458  0.65957806    -0.22400
H3359       H  0.20575930  0.53455110  0.66189034     0.19400
H3360       H  0.18533679  0.57353239  0.72170811     0.18200
H3361       H  0.22076940  0.55533986  0.73804535     0.14500
H3362       H  0.17362824  0.55582314  0.64433898     0.14400
H3363       H  0.23650453  0.52342347  0.68579033     0.32500
H3364       H  0.15784656  0.58857564  0.69600762     0.35300
C3365       C  0.94874207  0.68430480  0.81144366     0.20900
C3366       C  0.96073431  0.68266415  0.79469664    -0.39000
C3367       C  0.96201837  0.69962546  0.78291973     0.19900
C3368       C  0.95224345  0.71700013  0.78750250     0.22500
C3369       C  0.94010125  0.71860077  0.80422671    -0.39500
C3370       C  0.93865583  0.70150310  0.81595508     0.21300
N3371       N  0.94403023  0.66982550  0.82411713    -0.32800
C3372       C  0.93033938  0.67749923  0.83654178    -0.10300
C3373       C  0.92688946  0.69744656  0.83210152    -0.29100
N3374       N  0.95600880  0.73099475  0.77389497    -0.45700
C3375       C  0.96820561  0.72235126  0.76058899    -0.05000
C3376       C  0.97220904  0.70279016  0.76569305    -0.22400
H3377       H  0.96821757  0.66904270  0.79090909     0.19400
H3378       H  0.93205247  0.73200278  0.80761620     0.18200
H3379       H  0.91633204  0.70737694  0.83879143     0.14500
H3380       H  0.98159007  0.69238785  0.75799687     0.14400
H3381       H  0.94878734  0.65513912  0.82350522     0.32500
H3382       H  0.95076989  0.74552757  0.77376058     0.35300
C3383       C  0.06866805  0.82034038  0.81451946     0.20900
C3384       C  0.07302743  0.80940381  0.79750133    -0.39000
C3385       C  0.05665232  0.80303779  0.78650973     0.19900
C3386       C  0.03741891  0.80735135  0.79202722     0.22500
C3387       C  0.03306981  0.81826735  0.80909092    -0.39500
C3388       C  0.04946700  0.82455175  0.82016692     0.21300
N3389       N  0.08163153  0.82890071  0.82679870    -0.32800
C3390       C  0.07077765  0.83868509  0.84048799    -0.10300
C3391       C  0.05053463  0.83620844  0.83687060    -0.29100
N3392       N  0.02452318  0.80036552  0.77866481    -0.45700
C3393       C  0.03559371  0.79156127  0.76451461    -0.05000
C3394       C  0.05573125  0.79281145  0.76895739    -0.22400
H3395       H  0.08808290  0.80640774  0.79295543     0.19400
H3396       H  0.01804155  0.82191704  0.81322415     0.18200
H3397       H  0.03825415  0.84281695  0.84465412     0.14500
H3398       H  0.06802702  0.78742156  0.76028042     0.14400
H3399       H  0.09704236  0.82874228  0.82553849     0.32500
H3400       H  0.00912876  0.80178294  0.77899497     0.35300
C3401       C  0.08046169  0.68832244  0.67716357     0.20900
C3402       C  0.09333391  0.68219407  0.66209686    -0.39000
C3403       C  0.09977321  0.66247363  0.66318907     0.19900
C3404       C  0.09416832  0.65002133  0.67841220     0.22500
C3405       C  0.08106308  0.65603148  0.69327289    -0.39500
C3406       C  0.07426198  0.67557662  0.69191467     0.21300
N3407       N  0.07146666  0.70596969  0.67888600    -0.32800
C3408       C  0.05910697  0.70428333  0.69452913    -0.10300
C3409       C  0.06039215  0.68552645  0.70302148    -0.29100
N3410       N  0.10244009  0.63211252  0.67628395    -0.45700
C3411       C  0.11309290  0.63297276  0.65938558    -0.05000
C3412       C  0.11176381  0.65165956  0.65072217    -0.22400
H3413       H  0.09769955  0.69194668  0.65020111     0.19400
H3414       H  0.07620451  0.64608453  0.70481548     0.18200
H3415       H  0.05185221  0.67976418  0.71524051     0.14500
H3416       H  0.11890913  0.65673461  0.63737084     0.14400
H3417       H  0.07276911  0.71803859  0.66933677     0.32500
H3418       H  0.10074010  0.61994152  0.68563918     0.35300
C3419       C  0.91573279  0.68667514  0.61936716     0.20900
C3420       C  0.92774215  0.70357262  0.61900493    -0.39000
C3421       C  0.94195629  0.70474500  0.63397805     0.19900
C3422       C  0.94394804  0.69023329  0.64827190     0.22500
C3423       C  0.93195820  0.67329130  0.64859611    -0.39500
C3424       C  0.91782631  0.67204992  0.63351881     0.21300
N3425       N  0.90078978  0.68241336  0.60710149    -0.32800
C3426       C  0.89332141  0.66489388  0.61339798    -0.10300
C3427       C  0.90362434  0.65789584  0.62980882    -0.29100
N3428       N  0.95765881  0.69544707  0.66158991    -0.45700
C3429       C  0.96437754  0.71342773  0.65577958    -0.05000
C3430       C  0.95506658  0.71964978  0.63850397    -0.22400
H3431       H  0.92588631  0.71513405  0.60809817     0.19400
H3432       H  0.93330591  0.66209103  0.65994061     0.18200
H3433       H  0.90077826  0.64457936  0.63821421     0.14500
H3434       H  0.95684683  0.73363950  0.63092542     0.14400
H3435       H  0.89605218  0.69095373  0.59515283     0.32500
H3436       H  0.96158083  0.68763785  0.67431024     0.35300
C3437       C  0.69664980  0.22012883  0.53743201     0.20900
C3438       C  0.68065818  0.20707266  0.53494380    -0.39000
C3439       C  0.68039012  0.19054324  0.54753199     0.19900
C3440       C  0.69492225  0.18729327  0.56153453     0.22500
C3441       C  0.71102727  0.20025042  0.56386817    -0.39500
C3442       C  0.71133983  0.21673758  0.55125025     0.21300
N3443       N  0.69987859  0.23726716  0.52785343    -0.32800
C3444       C  0.71686748  0.24477691  0.53546669    -0.10300
C3445       C  0.72448182  0.23233928  0.55007427    -0.29100
N3446       N  0.68999731  0.17204663  0.57332134    -0.45700
C3447       C  0.67206642  0.16551299  0.56695873    -0.05000
C3448       C  0.66581316  0.17660730  0.55066315    -0.22400
H3449       H  0.66889263  0.20996546  0.52448874     0.19400
H3450       H  0.72214062  0.19802060  0.57515600     0.18200
H3451       H  0.73778605  0.23447163  0.55870846     0.14500
H3452       H  0.65152582  0.17592035  0.54346514     0.14400
H3453       H  0.69119348  0.24335931  0.51663201     0.32500
H3454       H  0.69759182  0.16778843  0.58603633     0.35300
C3455       C  0.64587730  0.34318103  0.41556697     0.20900
C3456       C  0.65183635  0.34125963  0.43527681    -0.39000
C3457       C  0.66888559  0.32987644  0.43852633     0.19900
C3458       C  0.67945306  0.32129391  0.42331581     0.22500
C3459       C  0.67324385  0.32286922  0.40359327    -0.39500
C3460       C  0.65596575  0.33401617  0.40036168     0.21300
N3461       N  0.62994158  0.35291444  0.40869803    -0.32800
C3462       C  0.62959925  0.34956760  0.38904408    -0.10300
C3463       C  0.64554845  0.33781705  0.38326478    -0.29100
N3464       N  0.69572664  0.31210553  0.43029652    -0.45700
C3465       C  0.69529021  0.31466331  0.45011560    -0.05000
C3466       C  0.67869405  0.32553226  0.45576422    -0.22400
H3467       H  0.64379150  0.34814015  0.44722018     0.19400
H3468       H  0.68124734  0.31592781  0.39165981     0.18200
H3469       H  0.64878595  0.33243630  0.36861184     0.14500
H3470       H  0.67478664  0.33032235  0.47046437     0.14400
H3471       H  0.61941228  0.36058103  0.41695954     0.32500
H3472       H  0.70656743  0.30481594  0.42210071     0.35300
C3473       C  0.82784667  0.34071595  0.56684883     0.20900
C3474       C  0.84030679  0.35635910  0.57248870    -0.39000
C3475       C  0.85518368  0.35152847  0.58611350     0.19900
C3476       C  0.85738529  0.33258821  0.59350446     0.22500
C3477       C  0.84496465  0.31694964  0.58784590    -0.39500
C3478       C  0.83013567  0.32174524  0.57418962     0.21300
N3479       N  0.81285787  0.34138616  0.55387130    -0.32800
C3480       C  0.80560551  0.32269938  0.55278374    -0.10300
C3481       C  0.81598586  0.31000615  0.56531294    -0.29100
N3482       N  0.87240800  0.33181911  0.60640123    -0.45700
C3483       C  0.87992579  0.35042727  0.60737237    -0.05000
C3484       C  0.86955025  0.36314074  0.59480294    -0.22400
H3485       H  0.83855715  0.37117528  0.56667389     0.19400
H3486       H  0.84677291  0.30212084  0.59360985     0.18200
H3487       H  0.81371255  0.29429834  0.56739112     0.14500
H3488       H  0.87199373  0.37876471  0.59238493     0.14400
H3489       H  0.80810643  0.35376117  0.54592186     0.32500
H3490       H  0.87685541  0.31931187  0.61427976     0.35300
C3491       C  0.69717751  0.37598638  0.56205996     0.20900
C3492       C  0.69664301  0.39176257  0.57543213    -0.39000
C3493       C  0.67963126  0.39284075  0.58725401     0.19900
C3494       C  0.66423562  0.37941255  0.58578168     0.22500
C3495       C  0.66476767  0.36368869  0.57240876    -0.39500
C3496       C  0.68181474  0.36249486  0.56072256     0.21300
N3497       N  0.71230677  0.37068085  0.55030978    -0.32800
C3498       C  0.70654006  0.35354886  0.54169655    -0.10300
C3499       C  0.68756875  0.34813233  0.54768746    -0.29100
N3500       N  0.65024670  0.38303150  0.59939677    -0.45700
C3501       C  0.65691239  0.39873314  0.60980732    -0.05000
C3502       C  0.67512474  0.40533573  0.60252133    -0.22400
H3503       H  0.70885005  0.40200653  0.57701865     0.19400
H3504       H  0.65307957  0.35277198  0.57163730     0.18200
H3505       H  0.67945635  0.33491508  0.54374983     0.14500
H3506       H  0.68413628  0.41739544  0.60791592     0.14400
H3507       H  0.72601761  0.37770387  0.54899663     0.32500
H3508       H  0.63742115  0.37480258  0.60196510     0.35300
C3509       C  0.80748323  0.37345620  0.44242979     0.20900
C3510       C  0.81213254  0.39180434  0.43392024    -0.39000
C3511       C  0.82642078  0.39136145  0.41892244     0.19900
C3512       C  0.83574322  0.37405918  0.41317372     0.22500
C3513       C  0.83100154  0.35573965  0.42158009    -0.39500
C3514       C  0.81641580  0.35612386  0.43621684     0.21300
N3515       N  0.79324665  0.36959812  0.45575880    -0.32800
C3516       C  0.79289884  0.34963971  0.45758069    -0.10300
C3517       C  0.80718493  0.34078158  0.44574697    -0.29100
N3518       N  0.84757859  0.37729916  0.39760236    -0.45700
C3519       C  0.84534134  0.39666229  0.39310117    -0.05000
C3520       C  0.83241287  0.40597276  0.40611243    -0.22400
H3521       H  0.80451079  0.40526336  0.43799277     0.19400
H3522       H  0.83750037  0.34206478  0.41643920     0.18200
H3523       H  0.81001662  0.32513713  0.44393225     0.14500
H3524       H  0.82724441  0.42111187  0.40553057     0.14400
H3525       H  0.78376961  0.37976617  0.46245057     0.32500
H3526       H  0.85549412  0.36674492  0.38961976     0.35300
C3527       C  0.18471530  0.92947432  0.67708874     0.20900
C3528       C  0.18634582  0.91069825  0.66833870    -0.39000
C3529       C  0.17493884  0.90770814  0.65123236     0.19900
C3530       C  0.16252117  0.92215968  0.64370189     0.22500
C3531       C  0.16113511  0.94098943  0.65224551    -0.39500
C3532       C  0.17283736  0.94410664  0.66906234     0.21300
N3533       N  0.19416602  0.93617687  0.69327243    -0.32800
C3534       C  0.18856718  0.95534229  0.69526059    -0.10300
C3535       C  0.17530191  0.96078003  0.68041833    -0.29100
N3536       N  0.15318906  0.91568681  0.62742512    -0.45700
C3537       C  0.16000419  0.89712612  0.62425675    -0.05000
C3538       C  0.17362841  0.89162115  0.63878268    -0.22400
H3539       H  0.19595779  0.89934117  0.67426688     0.19400
H3540       H  0.15179406  0.95246358  0.64610954     0.18200
H3541       H  0.16828424  0.97502215  0.67832425     0.14500
H3542       H  0.18151122  0.87774135  0.64002245     0.14400
H3543       H  0.20407530  0.92834939  0.70217521     0.32500
H3544       H  0.14324364  0.92361513  0.61864774     0.35300
C3545       C  0.06265066  0.81380941  0.63334605     0.20900
C3546       C  0.07267788  0.81631387  0.61548151    -0.39000
C3547       C  0.08624493  0.83194328  0.61491754     0.19900
C3548       C  0.08942589  0.84438130  0.63079961     0.22500
C3549       C  0.07959492  0.84170523  0.64878661    -0.39500
C3550       C  0.06623194  0.82585571  0.64945142     0.21300
N3551       N  0.05007116  0.79917729  0.63805633    -0.32800
C3552       C  0.04604484  0.80168318  0.65740708    -0.10300
C3553       C  0.05574196  0.81817400  0.66502361    -0.29100
N3554       N  0.10391655  0.85739802  0.62680375    -0.45700
C3555       C  0.11022292  0.85282469  0.60844898    -0.05000
C3556       C  0.09949871  0.83714951  0.60052678    -0.22400
H3557       H  0.07060737  0.80637966  0.60316917     0.19400
H3558       H  0.08266167  0.85081005  0.66152491     0.18200
H3559       H  0.05569455  0.82336116  0.68010150     0.14500
H3560       H  0.10169597  0.82999690  0.58644630     0.14400
H3561       H  0.04545568  0.78756591  0.62902774     0.32500
H3562       H  0.10996760  0.86787325  0.63636028     0.35300
C3563       C  0.08006257  0.94366971  0.53306395     0.20900
C3564       C  0.10031608  0.93921167  0.53461506    -0.39000
C3565       C  0.10529695  0.92434115  0.54821331     0.19900
C3566       C  0.09118304  0.91491744  0.55964791     0.22500
C3567       C  0.07088953  0.91906382  0.55779999    -0.39500
C3568       C  0.06589073  0.93369907  0.54395898     0.21300
N3569       N  0.07159469  0.95751860  0.52156954    -0.32800
C3570       C  0.05186484  0.95613339  0.52489544    -0.10300
C3571       C  0.04770629  0.94135687  0.53869196    -0.29100
N3572       N  0.09973867  0.90172949  0.57179782    -0.45700
C3573       C  0.11938999  0.90246930  0.56783506    -0.05000
C3574       C  0.12345237  0.91630787  0.55310966    -0.22400
H3575       H  0.11138610  0.94680660  0.52591199     0.19400
H3576       H  0.05982356  0.91150418  0.56654434     0.18200
H3577       H  0.03337238  0.93719164  0.54448518     0.14500
H3578       H  0.13773306  0.91999987  0.54689841     0.14400
H3579       H  0.07878071  0.96731523  0.51203962     0.32500
H3580       H  0.09260638  0.89238936  0.58181315     0.16100
C3581       C  0.13010043  0.06970201  0.69980319     0.20900
C3582       C  0.11341618  0.08209845  0.69898573    -0.39000
C3583       C  0.11166750  0.09387061  0.68194949     0.19900
C3584       C  0.12533981  0.09323125  0.66679007     0.22500
C3585       C  0.14202775  0.08090768  0.66764363    -0.39500
C3586       C  0.14386694  0.06927524  0.68471619     0.21300
N3587       N  0.13561883  0.05761335  0.71466479    -0.32800
C3588       C  0.15310857  0.04956361  0.70899990    -0.10300
C3589       C  0.15865791  0.05649692  0.69040817    -0.29100
N3590       N  0.12071888  0.10636181  0.65255601    -0.45700
C3591       C  0.10411300  0.11567753  0.65879353    -0.05000
C3592       C  0.09798826  0.10816423  0.67703624    -0.22400
H3593       H  0.10280988  0.08284634  0.71090457     0.19400
H3594       H  0.15300144  0.08067933  0.65603720     0.18200
H3595       H  0.17195710  0.05291822  0.68228046     0.14500
H3596       H  0.08542664  0.11279410  0.68576403     0.14400
H3597       H  0.12820826  0.05534228  0.72798196     0.32500
H3598       H  0.12883464  0.10935252  0.63980069     0.35300
C3599       C  0.02945555  0.08352308  0.56344369     0.20900
C3600       C  0.02586129  0.09897796  0.57682006    -0.39000
C3601       C  0.04267374  0.10717049  0.58595893     0.19900
C3602       C  0.06161492  0.10051249  0.58209551     0.22500
C3603       C  0.06523561  0.08516163  0.56863270    -0.39500
C3604       C  0.04844251  0.07697627  0.55949180     0.21300
N3605       N  0.01598909  0.07280614  0.55336605    -0.32800
C3606       C  0.02647947  0.05930446  0.54290351    -0.10300
C3607       C  0.04677754  0.06158611  0.54628842    -0.29100
N3608       N  0.07498981  0.11029850  0.59312478    -0.45700
C3609       C  0.06456055  0.12337314  0.60420523    -0.05000
C3610       C  0.04430532  0.12182247  0.59999589    -0.22400
H3611       H  0.01103935  0.10406124  0.58010122     0.19400
H3612       H  0.08002772  0.07977745  0.56570207     0.18200
H3613       H  0.05871442  0.05284482  0.54021440     0.14500
H3614       H  0.03223260  0.12995348  0.60658314     0.14400
H3615       H  0.00061916  0.07442492  0.55376334     0.32500
H3616       H  0.09026081  0.10798524  0.59309833     0.35300
C3617       C  0.04259602  0.18415686  0.68093424     0.20900
C3618       C  0.02959300  0.18280718  0.69701627    -0.39000
C3619       C  0.03040733  0.19843077  0.71054689     0.19900
C3620       C  0.04298312  0.21438751  0.70808553     0.22500
C3621       C  0.05598411  0.21576570  0.69196096    -0.39500
C3622       C  0.05537903  0.19995638  0.67855157     0.21300
N3623       N  0.04655506  0.16993398  0.66774670    -0.32800
C3624       C  0.06230778  0.17631787  0.65709157    -0.10300
C3625       C  0.06795071  0.19528328  0.66319272    -0.29100
N3626       N  0.04135582  0.22697019  0.72333561    -0.45700
C3627       C  0.02777800  0.21887641  0.73569428    -0.05000
C3628       C  0.02063000  0.20104961  0.72819031    -0.22400
H3629       H  0.02017518  0.17006041  0.69930362     0.19400
H3630       H  0.06643128  0.22780732  0.69045417     0.18200
H3631       H  0.08083434  0.20363237  0.65870211     0.14500
H3632       H  0.00967000  0.19137321  0.73471139     0.14400
H3633       H  0.04022062  0.15584857  0.66732313     0.32500
H3634       H  0.04909798  0.24019406  0.72527980     0.35300
C3635       C  0.07895612  0.05652261  0.38957408     0.20900
C3636       C  0.06266788  0.04391715  0.39261289    -0.39000
C3637       C  0.05751938  0.04039108  0.41239127     0.19900
C3638       C  0.06809227  0.04848179  0.42788348     0.22500
C3639       C  0.08414247  0.06129186  0.42485423    -0.39500
C3640       C  0.08899098  0.06514707  0.40513980     0.21300
N3641       N  0.08695376  0.06210694  0.37225981    -0.32800
C3642       C  0.10186399  0.07468147  0.37693179    -0.10300
C3643       C  0.10353780  0.07700501  0.39724729    -0.29100
N3644       N  0.06044425  0.04276885  0.44524310    -0.45700
C3645       C  0.04462689  0.03123146  0.44089287    -0.05000
C3646       C  0.04227387  0.02942195  0.42051656    -0.22400
H3647       H  0.05454658  0.03743002  0.38048980     0.19400
H3648       H  0.09219329  0.06787944  0.43697390     0.18200
H3649       H  0.11432054  0.08578612  0.40515430     0.14500
H3650       H  0.03094308  0.02124861  0.41273370     0.14400
H3651       H  0.08252859  0.05774850  0.35817296     0.32500
H3652       H  0.06539793  0.04687843  0.45923517     0.35300
C3653       C  0.20946417  0.05520792  0.29119916     0.20900
C3654       C  0.19796919  0.07226031  0.29341887    -0.39000
C3655       C  0.18101344  0.07015704  0.30503315     0.19900
C3656       C  0.17596379  0.05252388  0.31407568     0.22500
C3657       C  0.18756875  0.03538301  0.31191656    -0.39500
C3658       C  0.20447123  0.03740232  0.29998926     0.21300
N3659       N  0.22639707  0.05358441  0.28107299    -0.32800
C3660       C  0.23233232  0.03458548  0.28325590    -0.10300
C3661       C  0.21902296  0.02395101  0.29496462    -0.29100
N3662       N  0.16010331  0.05502935  0.32580625    -0.45700
C3663       C  0.15492784  0.07437874  0.32404684    -0.05000
C3664       C  0.16777606  0.08418662  0.31122462    -0.22400
H3665       H  0.20212711  0.08626092  0.28685642     0.19400
H3666       H  0.18390404  0.02162508  0.31923265     0.18200
H3667       H  0.21995870  0.00857340  0.29932260     0.14500
H3668       H  0.16842003  0.09990236  0.30822800     0.14400
H3669       H  0.23352044  0.06479018  0.27317342     0.32500
H3670       H  0.15419852  0.04458057  0.33550527     0.35300
C3671       C  0.90572643  0.85869587  0.67692868     0.20900
C3672       C  0.91337574  0.84799984  0.69307513    -0.39000
C3673       C  0.92810160  0.83399742  0.68857896     0.19900
C3674       C  0.93446107  0.83089346  0.66945391     0.22500
C3675       C  0.92679165  0.84147348  0.65341082    -0.39500
C3676       C  0.91226955  0.85548471  0.65791685     0.21300
N3677       N  0.89219711  0.87331228  0.67721113    -0.32800
C3678       C  0.89023559  0.87951783  0.65821195    -0.10300
C3679       C  0.90250965  0.86856789  0.64581240    -0.29100
N3680       N  0.94865380  0.81707630  0.66891577    -0.45700
C3681       C  0.95155312  0.81122369  0.68780891    -0.05000
C3682       C  0.93899333  0.82145840  0.70059072    -0.22400
H3683       H  0.90844697  0.85058559  0.70801798     0.19400
H3684       H  0.93197394  0.83915217  0.63850622     0.18200
H3685       H  0.90446329  0.87002772  0.63007189     0.14500
H3686       H  0.93798196  0.81994163  0.71643703     0.14400
H3687       H  0.88503923  0.87881269  0.68966872     0.32500
H3688       H  0.95603126  0.81200860  0.65638061     0.35300
C3689       C  0.92799111  0.97173740  0.57256008     0.20900
C3690       C  0.91319053  0.97461028  0.58681524    -0.39000
C3691       C  0.90675294  0.95749107  0.59672621     0.19900
C3692       C  0.91439237  0.93896602  0.59270375     0.22500
C3693       C  0.92905046  0.93606918  0.57839771    -0.39500
C3694       C  0.93549463  0.95313476  0.56854111     0.21300
N3695       N  0.93682945  0.98554803  0.56121419    -0.32800
C3696       C  0.94997837  0.97555619  0.54987630    -0.10300
C3697       C  0.94948780  0.95534083  0.55403832    -0.29100
N3698       N  0.90579450  0.92509418  0.60403502    -0.45700
C3699       C  0.89248664  0.93477794  0.61544660    -0.05000
C3700       C  0.89270878  0.95506217  0.61124784    -0.22400
H3701       H  0.90717786  0.98908479  0.59000373     0.19400
H3702       H  0.93502603  0.92158200  0.57518416     0.18200
H3703       H  0.95830777  0.94378579  0.54738512     0.14500
H3704       H  0.88358220  0.96652589  0.61760811     0.14400
H3705       H  0.93406000  0.00074284  0.56114399     0.32500
H3706       H  0.90891025  0.90998125  0.60387638     0.35300
C3707       C  0.81256709  0.93645984  0.68581247     0.20900
C3708       C  0.79640611  0.93333454  0.69840096    -0.39000
C3709       C  0.78465477  0.94998980  0.70214156     0.19900
C3710       C  0.78859849  0.96828602  0.69382686     0.22500
C3711       C  0.80469396  0.97136598  0.68116473    -0.39500
C3712       C  0.81657065  0.95476798  0.67761424     0.21300
N3713       N  0.82543592  0.92288303  0.67924597    -0.32800
C3714       C  0.83786336  0.93257964  0.66685736    -0.10300
C3715       C  0.83271697  0.95256559  0.66548785    -0.29100
N3716       N  0.77524434  0.98173015  0.69970517    -0.45700
C3717       C  0.76275488  0.97194076  0.71191849    -0.05000
C3718       C  0.76810123  0.95209134  0.71375960    -0.22400
H3719       H  0.79316577  0.91898687  0.70472453     0.19400
H3720       H  0.80769651  0.98561014  0.67450083     0.18200
H3721       H  0.83895392  0.96378306  0.65596412     0.14500
H3722       H  0.76094541  0.94078905  0.72254577     0.14400
H3723       H  0.82523116  0.90773041  0.68227180     0.32500
H3724       H  0.77475187  0.99666729  0.69577157     0.35300
C3725       C  0.89509083  0.09420578  0.45167097     0.20900
C3726       C  0.90361698  0.08712279  0.46922409    -0.39000
C3727       C  0.91808123  0.07238344  0.46702067     0.19900
C3728       C  0.92354156  0.06524357  0.44871920     0.22500
C3729       C  0.91497284  0.07226023  0.43120134    -0.39500
C3730       C  0.90059286  0.08703728  0.43341505     0.21300
N3731       N  0.88183543  0.10890914  0.44971117    -0.32800
C3732       C  0.87893745  0.11125575  0.43002952    -0.10300
C3733       C  0.89034609  0.09772286  0.41943181    -0.29100
N3734       N  0.93815591  0.05190508  0.45047021    -0.45700
C3735       C  0.94215324  0.05054619  0.47001455    -0.05000
C3736       C  0.92983533  0.06302196  0.48085670    -0.22400
H3737       H  0.89961167  0.09297951  0.48350173     0.19400
H3738       H  0.91952152  0.06694700  0.41687059     0.18200
H3739       H  0.89149743  0.09613606  0.40362348     0.14500
H3740       H  0.92979063  0.06525593  0.49664341     0.14400
H3741       H  0.87580039  0.11728996  0.46111939     0.32500
H3742       H  0.94522927  0.04443498  0.43900703     0.35300
C3743       C  0.79358216  0.21992041  0.45321091     0.20900
C3744       C  0.79335235  0.20618570  0.43774914    -0.39000
C3745       C  0.80837377  0.19186833  0.43815643     0.19900
C3746       C  0.82270043  0.19138872  0.45270986     0.22500
C3747       C  0.82282621  0.20502957  0.46833239    -0.39500
C3748       C  0.80762355  0.21923064  0.46806352     0.21300
N3749       N  0.78126538  0.23530606  0.45576007    -0.32800
C3750       C  0.78729943  0.24440386  0.47249593    -0.10300
C3751       C  0.80367232  0.23475606  0.48066027    -0.29100
N3752       N  0.83636365  0.17749659  0.44867757    -0.45700
C3753       C  0.83066415  0.16889540  0.43150315    -0.05000
C3754       C  0.81315696  0.17752922  0.42458895    -0.22400
H3755       H  0.78253454  0.20688126  0.42599207     0.19400
H3756       H  0.83416375  0.20486943  0.47961233     0.18200
H3757       H  0.81175993  0.23875538  0.49383669     0.14500
H3758       H  0.80571172  0.17489897  0.41072956     0.14400
H3759       H  0.76940776  0.23932603  0.44670513     0.32500
H3760       H  0.84938004  0.17476190  0.45654564     0.35300
C3761       C  0.94407391  0.89807982  0.41364055     0.20900
C3762       C  0.95838112  0.90136820  0.42832200    -0.39000
C3763       C  0.96061213  0.92105974  0.43449404     0.19900
C3764       C  0.94964818  0.93635880  0.42642441     0.22500
C3765       C  0.93503212  0.93300706  0.41203206    -0.39500
C3766       C  0.93258994  0.91326219  0.40607488     0.21300
N3767       N  0.93978613  0.88088320  0.40467100    -0.32800
C3768       C  0.92527599  0.88506919  0.39148369    -0.10300
C3769       C  0.92023525  0.90507128  0.39206642    -0.29100
N3770       N  0.95491875  0.95376879  0.43446847    -0.45700
C3771       C  0.96908324  0.94951089  0.44803632    -0.05000
C3772       C  0.97296402  0.92922925  0.44851821    -0.22400
H3773       H  0.96725075  0.88948594  0.43437646     0.19400
H3774       H  0.92632273  0.94491811  0.40580372     0.18200
H3775       H  0.90963943  0.91272794  0.38281809     0.14500
H3776       H  0.98339326  0.92151312  0.45789842     0.14400
H3777       H  0.94648189  0.86718181  0.40717929     0.32500
H3778       H  0.94887970  0.96763969  0.43130859     0.35300
C3779       C  0.95027881  0.82450295  0.31608907     0.20900
C3780       C  0.96214798  0.82667207  0.29928022    -0.39000
C3781       C  0.96186316  0.81082121  0.28604861     0.19900
C3782       C  0.95093731  0.79385565  0.28947107     0.22500
C3783       C  0.93915347  0.79160447  0.30638902    -0.39500
C3784       C  0.93908899  0.80769424  0.31946114     0.21300
N3785       N  0.94552183  0.83874796  0.32894555    -0.32800
C3786       C  0.93069222  0.83139839  0.34024725    -0.10300
C3787       C  0.92666758  0.81175710  0.33509691    -0.29100
N3788       N  0.95243570  0.78137942  0.27413349    -0.45700
C3789       C  0.96423302  0.79059422  0.26079529    -0.05000
C3790       C  0.97042894  0.80897170  0.26774753    -0.22400
H3791       H  0.97010267  0.84021539  0.29616164     0.19400
H3792       H  0.92981905  0.77878578  0.30861260     0.18200
H3793       H  0.91471138  0.80247413  0.34025700     0.14500
H3794       H  0.97991581  0.81955910  0.26038721     0.14400
H3795       H  0.95047119  0.85338166  0.32859989     0.32500
H3796       H  0.94571294  0.76754131  0.27274829     0.35300
C3797       C  0.67770034  0.68684025  0.45130387     0.20900
C3798       C  0.67609641  0.70386840  0.46288657    -0.39000
C3799       C  0.69284554  0.71601820  0.46330616     0.19900
C3800       C  0.71001384  0.71148047  0.45316270     0.22500
C3801       C  0.71163253  0.69439661  0.44156620    -0.39500
C3802       C  0.69473902  0.68232542  0.44095146     0.21300
N3803       N  0.66307807  0.67431076  0.44666038    -0.32800
C3804       C  0.67052534  0.66202455  0.43277399    -0.10300
C3805       C  0.69048467  0.66627995  0.42920100    -0.29100
N3806       N  0.72363204  0.72575737  0.45561589    -0.45700
C3807       C  0.71495363  0.73946988  0.46732063    -0.05000
C3808       C  0.69576301  0.73390760  0.47239284    -0.22400
H3809       H  0.66252749  0.70776264  0.47040709     0.19400
H3810       H  0.72476813  0.69115956  0.43304426     0.18200
H3811       H  0.70015250  0.65992906  0.41823214     0.14500
H3812       H  0.68538581  0.74184499  0.48158975     0.14400
H3813       H  0.64836657  0.67517438  0.45131703     0.32500
H3814       H  0.73789602  0.72615712  0.44969905     0.35300
C3815       C  0.79264187  0.71409636  0.55030192     0.20900
C3816       C  0.79408082  0.70215812  0.56714728    -0.39000
C3817       C  0.80892313  0.68771730  0.56672435     0.19900
C3818       C  0.82150476  0.68546241  0.55082636     0.22500
C3819       C  0.82004986  0.69739350  0.53391590    -0.39500
C3820       C  0.80504958  0.71173558  0.53425168     0.21300
N3821       N  0.78041012  0.72947379  0.54754334    -0.32800
C3822       C  0.78500125  0.73697993  0.52960078    -0.10300
C3823       C  0.80020340  0.72622534  0.52074777    -0.29100
N3824       N  0.83537471  0.67179861  0.55479258    -0.45700
C3825       C  0.83144412  0.66501557  0.57323240    -0.05000
C3826       C  0.81512189  0.67483391  0.58118273    -0.22400
H3827       H  0.78466996  0.70430315  0.57986279     0.19400
H3828       H  0.83015619  0.69594757  0.52163683     0.18200
H3829       H  0.80718110  0.72903797  0.50666529     0.14500
H3830       H  0.80939599  0.67375112  0.59602975     0.14400
H3831       H  0.76982513  0.73476144  0.55742896     0.32500
H3832       H  0.84744496  0.66813751  0.54591538     0.35300
C3833       C  0.67345807  0.83003275  0.56493932     0.20900
C3834       C  0.65903059  0.84472341  0.56764950    -0.39000
C3835       C  0.64922488  0.84442381  0.58585456     0.19900
C3836       C  0.65336205  0.83040673  0.60016830     0.22500
C3837       C  0.66817850  0.81601601  0.59765652    -0.39500
C3838       C  0.67814982  0.81644968  0.57950562     0.21300
N3839       N  0.68417139  0.82668258  0.54863960    -0.32800
C3840       C  0.69603243  0.81107526  0.55288368    -0.10300
C3841       C  0.69289481  0.80437480  0.57209875    -0.29100
N3842       N  0.64084561  0.83224446  0.61543818    -0.45700
C3843       C  0.62875313  0.84764473  0.61091369    -0.05000
C3844       C  0.63370064  0.85578135  0.59266861    -0.22400
H3845       H  0.65536484  0.85530371  0.55622114     0.19400
H3846       H  0.67137585  0.80501094  0.60882197     0.18200
H3847       H  0.70013920  0.79214909  0.57947717     0.14500
H3848       H  0.62620689  0.86762870  0.58493043     0.14400
H3849       H  0.68366316  0.83470559  0.53547070     0.32500
H3850       H  0.64031434  0.82328294  0.62798563     0.35300
C3851       C  0.82731779  0.81489033  0.42785106     0.20900
C3852       C  0.84216961  0.80856785  0.41486400    -0.39000
C3853       C  0.85240522  0.82362597  0.40487749     0.19900
C3854       C  0.84828050  0.84344431  0.40766947     0.22500
C3855       C  0.83352073  0.84978768  0.42073936    -0.39500
C3856       C  0.82322558  0.83474301  0.43065538     0.21300
N3857       N  0.81525449  0.80352386  0.43887050    -0.32800
C3858       C  0.80338146  0.81627166  0.44872505    -0.10300
C3859       C  0.80799765  0.83585505  0.44404042    -0.29100
N3860       N  0.86028908  0.85481398  0.39663950    -0.45700
C3861       C  0.87229196  0.84217025  0.38674437    -0.05000
C3862       C  0.86765944  0.82255139  0.39150227    -0.22400
H3863       H  0.84548200  0.79307399  0.41265370     0.19400
H3864       H  0.83026586  0.86528831  0.42299847     0.18200
H3865       H  0.80104987  0.84913230  0.44961657     0.14500
H3866       H  0.87470033  0.80919055  0.38630441     0.14400
H3867       H  0.81510767  0.78809662  0.43963595     0.32500
H3868       H  0.86031980  0.87023555  0.39617864     0.35300
C3869       C  0.81261228  0.84818392  0.56822629     0.20900
C3870       C  0.82559188  0.84680953  0.58427519    -0.39000
C3871       C  0.83295806  0.86480099  0.59127173     0.19900
C3872       C  0.82758377  0.88278401  0.58301607     0.22500
C3873       C  0.81483964  0.88412926  0.56675604    -0.39500
C3874       C  0.80761580  0.86610710  0.55964521     0.21300
N3875       N  0.80273565  0.83334224  0.55967178    -0.32800
C3876       C  0.79146775  0.84183977  0.54547636    -0.10300
C3877       C  0.79420363  0.86225180  0.54484712    -0.29100
N3878       N  0.83492901  0.89778603  0.59360734    -0.45700
C3879       C  0.84515065  0.88924528  0.60851499    -0.05000
C3880       C  0.84447622  0.86873275  0.60753132    -0.22400
H3881       H  0.82916728  0.83282052  0.59120114     0.19400
H3882       H  0.81036705  0.89819119  0.56053445     0.18200
H3883       H  0.78689642  0.87284714  0.53532576     0.14500
H3884       H  0.85037441  0.85823224  0.61807478     0.14400
H3885       H  0.80341919  0.81836938  0.56344275     0.32500
H3886       H  0.83244214  0.91287517  0.59139503     0.35300
C3887       C  0.67922526  0.88957909  0.41757771     0.20900
C3888       C  0.69619815  0.88847572  0.42936293    -0.39000
C3889       C  0.69716605  0.87219614  0.44204318     0.19900
C3890       C  0.68237226  0.85804450  0.44287803     0.22500
C3891       C  0.66523501  0.85928131  0.43122839    -0.39500
C3892       C  0.66423910  0.87564754  0.41855000     0.21300
N3893       N  0.67555215  0.90284223  0.40338359    -0.32800
C3894       C  0.65810433  0.89737063  0.39519139    -0.10300
C3895       C  0.65042790  0.88059674  0.40439913    -0.29100
N3896       N  0.68764912  0.84318595  0.45491929    -0.45700
C3897       C  0.70591133  0.84796676  0.46171130    -0.05000
C3898       C  0.71224842  0.86605078  0.45419829    -0.22400
H3899       H  0.70809647  0.89913775  0.42823058     0.19400
H3900       H  0.65386661  0.84800708  0.43153022     0.18200
H3901       H  0.63713438  0.87253453  0.40058493     0.14500
H3902       H  0.72640696  0.87318450  0.45647741     0.14400
H3903       H  0.68461189  0.91469090  0.39934383     0.32500
H3904       H  0.67964743  0.83027423  0.45777142     0.35300
C3905       C  0.68820003  0.95668522  0.32651872     0.20900
C3906       C  0.70404887  0.97009499  0.32684438    -0.39000
C3907       C  0.71635296  0.96995319  0.31020135     0.19900
C3908       C  0.71318322  0.95736477  0.29445905     0.22500
C3909       C  0.69750469  0.94373150  0.29428571    -0.39500
C3910       C  0.68510378  0.94398678  0.31088316     0.21300
N3911       N  0.67494868  0.95334628  0.34089483    -0.32800
C3912       C  0.66333447  0.93827450  0.33455677    -0.10300
C3913       C  0.66921716  0.93216495  0.31573274    -0.29100
N3914       N  0.72682625  0.96033045  0.28032346    -0.45700
C3915       C  0.73881304  0.97486081  0.28717038    -0.05000
C3916       C  0.73279413  0.98115685  0.30580361    -0.22400
H3917       H  0.70666172  0.97985830  0.33918972     0.19400
H3918       H  0.69517043  0.93362724  0.28216046     0.18200
H3919       H  0.66372286  0.91986369  0.30719140     0.14500
H3920       H  0.73942891  0.99256541  0.31481121     0.14400
H3921       H  0.67453777  0.96011026  0.35471061     0.32500
H3922       H  0.72793338  0.95292221  0.26688231     0.35300
C3923       C  0.71252094  0.04276608  0.19423541     0.20900
C3924       C  0.69580968  0.03935306  0.18231697    -0.39000
C3925       C  0.68386913  0.05596599  0.17847214     0.19900
C3926       C  0.68844564  0.07449242  0.18575690     0.22500
C3927       C  0.70516228  0.07791562  0.19750202    -0.39500
C3928       C  0.71693204  0.06135337  0.20150167     0.21300
N3929       N  0.72593099  0.02945699  0.20054612    -0.32800
C3930       C  0.73885059  0.03970133  0.21198000    -0.10300
C3931       C  0.73377166  0.05964699  0.21279113    -0.29100
N3932       N  0.67540095  0.08799835  0.17935648    -0.45700
C3933       C  0.66223083  0.07818417  0.16789569    -0.05000
C3934       C  0.66704235  0.05805027  0.16702928    -0.22400
H3935       H  0.69235580  0.02486914  0.17650136     0.19400
H3936       H  0.70873985  0.09244443  0.20313130     0.18200
H3937       H  0.74117890  0.07126417  0.22089157     0.14500
H3938       H  0.66002205  0.04666222  0.15831951     0.14400
H3939       H  0.72610913  0.01432041  0.19751811     0.32500
H3940       H  0.67591488  0.10321591  0.18191689     0.35300
C3941       C  0.81374571  0.08655175  0.32359928     0.20900
C3942       C  0.81244613  0.10554738  0.33197823    -0.39000
C3943       C  0.82412385  0.10883049  0.34887212     0.19900
C3944       C  0.83646301  0.09441847  0.35658535     0.22500
C3945       C  0.83749341  0.07535154  0.34845182    -0.39500
C3946       C  0.82555012  0.07197153  0.33181326     0.21300
N3947       N  0.80419191  0.07966065  0.30751761    -0.32800
C3948       C  0.80965200  0.06041903  0.30573653    -0.10300
C3949       C  0.82291841  0.05514054  0.32067421    -0.29100
N3950       N  0.84629133  0.10128591  0.37243299    -0.45700
C3951       C  0.83992268  0.12010535  0.37513062    -0.05000
C3952       C  0.82600923  0.12531501  0.36076499    -0.22400
H3953       H  0.80297089  0.11691346  0.32585484     0.19400
H3954       H  0.84685358  0.06394012  0.35467639     0.18200
H3955       H  0.82991830  0.04091147  0.32291059     0.14500
H3956       H  0.81839108  0.13930794  0.35919862     0.14400
H3957       H  0.79437848  0.08746058  0.29848818     0.32500
H3958       H  0.85636005  0.09349367  0.38119207     0.35300
C3959       C  0.80935661  0.93590439  0.16942079     0.20900
C3960       C  0.80303003  0.92197378  0.15529854    -0.39000
C3961       C  0.81784131  0.91446934  0.14267679     0.19900
C3962       C  0.83738084  0.92038320  0.14402391     0.22500
C3963       C  0.84366183  0.93425592  0.15804993    -0.39500
C3964       C  0.82895307  0.94170330  0.17061785     0.21300
N3965       N  0.79838034  0.94528868  0.18321774    -0.32800
C3966       C  0.81119329  0.95710404  0.19324594    -0.10300
C3967       C  0.83032985  0.95518359  0.18570833    -0.29100
N3968       N  0.84862923  0.91110320  0.13052104    -0.45700
C3969       C  0.83628459  0.89904381  0.12029843    -0.05000
C3970       C  0.81688760  0.90082021  0.12754340    -0.22400
H3971       H  0.78774844  0.91729157  0.15422785     0.19400
H3972       H  0.85895488  0.93889597  0.15914815     0.18200
H3973       H  0.84356924  0.96271856  0.19063248     0.14500
H3974       H  0.80377934  0.89310767  0.12259108     0.14400
H3975       H  0.78319484  0.94375185  0.18565142     0.32500
H3976       H  0.86381121  0.91302841  0.12847108     0.35300
C3977       C  0.86120295  0.93760679  0.29816099     0.20900
C3978       C  0.87495364  0.92216155  0.29705323    -0.39000
C3979       C  0.87740516  0.91101898  0.31431274     0.19900
C3980       C  0.86703026  0.91490375  0.33142663     0.22500
C3981       C  0.85311771  0.93029597  0.33251004    -0.39500
C3982       C  0.85060743  0.94144329  0.31518795     0.21300
N3983       N  0.85597091  0.95009028  0.28364019    -0.32800
C3984       C  0.84180029  0.96187098  0.29139894    -0.10300
C3985       C  0.83803464  0.95694096  0.31104610    -0.29100
N3986       N  0.87218816  0.90211769  0.34577170    -0.45700
C3987       C  0.88591957  0.88994478  0.33767628    -0.05000
C3988       C  0.88948737  0.89513431  0.31803694    -0.22400
H3989       H  0.88309253  0.91899169  0.28369831     0.19400
H3990       H  0.84480199  0.93330203  0.34579391     0.18200
H3991       H  0.82728481  0.96356291  0.32083614     0.14500
H3992       H  0.89968866  0.88842260  0.30776608     0.14400
H3993       H  0.86127979  0.95020211  0.26918752     0.32500
H3994       H  0.86654216  0.90170063  0.36007787     0.35300
C3995       C  0.85355872  0.07238664  0.18774960     0.20900
C3996       C  0.85277009  0.08503479  0.17137897    -0.39000
C3997       C  0.86969362  0.09647431  0.16802677     0.19900
C3998       C  0.88608224  0.09564974  0.18025547     0.22500
C3999       C  0.88705889  0.08262365  0.19644919    -0.39500
C4000       C  0.87016412  0.07088944  0.19963960     0.21300
N4001       N  0.83880791  0.06116724  0.19478630    -0.32800
C4002       C  0.84601998  0.05214654  0.21111189    -0.10300
C4003       C  0.86565125  0.05763031  0.21457233    -0.29100
N4004       N  0.89948916  0.10931889  0.17482981    -0.45700
C4005       C  0.89161638  0.11865802  0.15890921    -0.05000
C4006       C  0.87315641  0.11091323  0.15411956    -0.22400
H4007       H  0.83968082  0.08630666  0.16225155     0.19400
H4008       H  0.89976799  0.08208874  0.20615991     0.18200
H4009       H  0.87491082  0.05340334  0.22690511     0.14500
H4010       H  0.86316113  0.11591434  0.14267163     0.14400
H4011       H  0.82448572  0.06002633  0.18907082     0.32500
H4012       H  0.91299280  0.11232809  0.18171549     0.35300
C4013       C  0.05047910  0.30025395  0.21021793     0.20900
C4014       C  0.06307360  0.29899602  0.19378785    -0.39000
C4015       C  0.06242451  0.31512468  0.18068853     0.19900
C4016       C  0.05009464  0.33115320  0.18372422     0.22500
C4017       C  0.03765189  0.33247119  0.20019333    -0.39500
C4018       C  0.03839886  0.31647101  0.21331499     0.21300
N4019       N  0.04833925  0.28698736  0.22487395    -0.32800
C4020       C  0.03487794  0.29492322  0.23740390    -0.10300
C4021       C  0.02844647  0.31334977  0.23072868    -0.29100
N4022       N  0.05358928  0.34537202  0.17035800    -0.45700
C4023       C  0.06848831  0.33867322  0.15877513    -0.05000
C4024       C  0.07424541  0.31966152  0.16471311    -0.22400
H4025       H  0.07301235  0.28663682  0.19164152     0.19400
H4026       H  0.02844412  0.34528255  0.20286743     0.18200
H4027       H  0.01755189  0.32292930  0.23745026     0.14500
H4028       H  0.08674561  0.31114921  0.15953647     0.14400
H4029       H  0.05542021  0.27331270  0.22616519     0.32500
H4030       H  0.04752199  0.35958172  0.17028952     0.35300
C4031       C  0.96608559  0.20964840  0.20608860     0.20900
C4032       C  0.96917714  0.19675885  0.19021209    -0.39000
C4033       C  0.95270278  0.19347717  0.17804885     0.19900
C4034       C  0.93459698  0.20238504  0.18146361     0.22500
C4035       C  0.93148797  0.21519281  0.19736125    -0.39500
C4036       C  0.94790807  0.21843344  0.20952309     0.21300
N4037       N  0.97906413  0.21445457  0.22030602    -0.32800
C4038       C  0.96897790  0.22625976  0.23291798    -0.10300
C4039       C  0.94952700  0.22912085  0.22665987    -0.29100
N4040       N  0.92079120  0.19532435  0.16913571    -0.45700
C4041       C  0.93008356  0.18180729  0.15764179    -0.05000
C4042       C  0.95004331  0.18021788  0.16289321    -0.22400
H4043       H  0.98315890  0.18930341  0.18791321     0.19400
H4044       H  0.91714280  0.22160595  0.20043317     0.18200
H4045       H  0.93804624  0.23761272  0.23385226     0.14500
H4046       H  0.96071591  0.16954788  0.15761172     0.14400
H4047       H  0.99371251  0.20969964  0.22155466     0.32500
H4048       H  0.90566851  0.19833644  0.16964971     0.35300
C4049       C  0.06991576  0.18494156  0.32717723     0.20900
C4050       C  0.07920062  0.17518284  0.34295384    -0.39000
C4051       C  0.09050702  0.15856489  0.33794956     0.19900
C4052       C  0.09245950  0.15223254  0.31869070     0.22500
C4053       C  0.08323005  0.16205058  0.30287409    -0.39500
C4054       C  0.07188450  0.17868139  0.30787707     0.21300
N4055       N  0.05771510  0.20054493  0.32822101    -0.32800
C4056       C  0.05181899  0.20434464  0.30948479    -0.10300
C4057       C  0.06044674  0.19107644  0.29630354    -0.29100
N4058       N  0.10346080  0.13571938  0.31790053    -0.45700
C4059       C  0.10851859  0.13138557  0.33681263    -0.05000
C4060       C  0.10072993  0.14540803  0.34973017    -0.22400
H4061       H  0.07743428  0.17996563  0.35805920     0.19400
H4062       H  0.08452970  0.15692312  0.28783520     0.18200
H4063       H  0.05818084  0.19023470  0.28053690     0.14500
H4064       H  0.10214717  0.14590116  0.36559926     0.14400
H4065       H  0.05338401  0.20796372  0.34099528     0.32500
H4066       H  0.10680604  0.12768559  0.30521973     0.35300
C4067       C  0.93546185  0.33744679  0.32323141     0.20900
C4068       C  0.93302469  0.35285886  0.33682314    -0.39000
C4069       C  0.91417032  0.36150921  0.33733781     0.19900
C4070       C  0.89899625  0.35547533  0.32501953     0.22500
C4071       C  0.90130797  0.33970461  0.31174842    -0.39500
C4072       C  0.92010691  0.33083370  0.31144265     0.21300
N4073       N  0.95199578  0.32702088  0.31980918    -0.32800
C4074       C  0.94709999  0.31336835  0.30605629    -0.10300
C4075       C  0.92728803  0.31517595  0.30050585    -0.29100
N4076       N  0.88295550  0.36700922  0.32741902    -0.45700
C4077       C  0.88788436  0.38030027  0.34154350    -0.05000
C4078       C  0.90715751  0.37718458  0.34824432    -0.22400
H4079       H  0.94500390  0.35789735  0.34615002     0.19400
H4080       H  0.88941792  0.33484589  0.30222111     0.18200
H4081       H  0.91926928  0.30626277  0.28995221     0.14500
H4082       H  0.91525949  0.38585002  0.35894394     0.14400
H4083       H  0.96566279  0.32869456  0.32683150     0.32500
H4084       H  0.86957782  0.36606855  0.31975101     0.35300
C4085       C  0.90915683  0.17447989  0.36586301     0.20900
C4086       C  0.91625430  0.17970498  0.34715509    -0.39000
C4087       C  0.93142846  0.19384662  0.34684713     0.19900
C4088       C  0.93926152  0.20195314  0.36387045     0.22500
C4089       C  0.93195405  0.19694188  0.38260736    -0.39500
C4090       C  0.91649204  0.18304023  0.38289604     0.21300
N4091       N  0.89385580  0.16245130  0.36995997    -0.32800
C4092       C  0.89111391  0.16371582  0.38966271    -0.10300
C4093       C  0.90494358  0.17636959  0.39827607    -0.29100
N4094       N  0.95326105  0.21544388  0.35948878    -0.45700
C4095       C  0.95400943  0.21615752  0.33952893    -0.05000
C4096       C  0.94061985  0.20290188  0.33116490    -0.22400
H4097       H  0.91000601  0.17364335  0.33377684     0.19400
H4098       H  0.93746950  0.20380564  0.39591653     0.18200
H4099       H  0.90581071  0.18077022  0.41357664     0.14500
H4100       H  0.93780217  0.20043794  0.31565837     0.14400
H4101       H  0.88499337  0.15487172  0.35986583     0.32500
H4102       H  0.96129705  0.22409628  0.36940295     0.35300
C4103       C  0.06276287  0.30847213  0.36469311     0.20900
C4104       C  0.07863338  0.30728705  0.37787854    -0.39000
C4105       C  0.08939724  0.32475727  0.38052890     0.19900
C4106       C  0.08478734  0.34223500  0.37096300     0.22500
C4107       C  0.06888332  0.34343552  0.35762711    -0.39500
C4108       C  0.05815048  0.32582607  0.35481643     0.21300
N4109       N  0.05122361  0.29350368  0.35862673    -0.32800
C4110       C  0.03940444  0.30124094  0.34447595    -0.10300
C4111       C  0.04314239  0.32139386  0.34179390    -0.29100
N4112       N  0.09779284  0.35655536  0.37583723    -0.45700
C4113       C  0.11083824  0.34797137  0.38849527    -0.05000
C4114       C  0.10589223  0.32815631  0.39172492    -0.22400
H4115       H  0.08263842  0.29360805  0.38517849     0.19400
H4116       H  0.06545355  0.35688525  0.34964759     0.18200
H4117       H  0.03650427  0.33119730  0.33102354     0.14500
H4118       H  0.11324271  0.31743848  0.40103970     0.14400
H4119       H  0.05221475  0.27868991  0.36292150     0.32500
H4120       H  0.09790287  0.37108488  0.37060394     0.35300
C4121       C  0.81400741  0.55847211  0.17231883     0.20900
C4122       C  0.79797156  0.54531671  0.17198194    -0.39000
C4123       C  0.78627170  0.54492099  0.18902208     0.19900
C4124       C  0.79030375  0.55660495  0.20525689     0.22500
C4125       C  0.80635720  0.56979085  0.20558033    -0.39500
C4126       C  0.81800441  0.57026873  0.18845631     0.21300
N4127       N  0.82620872  0.56285351  0.15733579    -0.32800
C4128       C  0.83795499  0.57777323  0.16374870    -0.10300
C4129       C  0.83339813  0.58259407  0.18329438    -0.29100
N4130       N  0.77655830  0.55389619  0.21933832    -0.45700
C4131       C  0.76361062  0.54051987  0.21190110    -0.05000
C4132       C  0.76921355  0.53456475  0.19304858    -0.22400
H4133       H  0.79449572  0.53648781  0.15915521     0.19400
H4134       H  0.80921337  0.57939165  0.21799947     0.18200
H4135       H  0.83932413  0.59442160  0.19220198     0.14500
H4136       H  0.76171721  0.52416083  0.18351634     0.14400
H4137       H  0.82576329  0.55692927  0.14313953     0.32500
H4138       H  0.77585001  0.56093384  0.23300375     0.35300
C4139       C  0.78981630  0.47254493  0.30319261     0.20900
C4140       C  0.80702157  0.47550486  0.31452317    -0.39000
C4141       C  0.81789463  0.45837604  0.31921560     0.19900
C4142       C  0.81193796  0.43976570  0.31325998     0.22500
C4143       C  0.79473075  0.43679639  0.30204708    -0.39500
C4144       C  0.78399084  0.45388572  0.29720695     0.21300
N4145       N  0.77699146  0.48633721  0.29662074    -0.32800
C4146       C  0.76296117  0.47634921  0.28630640    -0.10300
C4147       C  0.76683508  0.45608022  0.28643348    -0.29100
N4148       N  0.82413533  0.42582344  0.32047549    -0.45700
C4149       C  0.83814921  0.43547563  0.33108585    -0.05000
C4150       C  0.83468017  0.45589963  0.33061425    -0.22400
H4151       H  0.81154536  0.49003846  0.31942013     0.19400
H4152       H  0.78997784  0.42221314  0.29752039     0.18200
H4153       H  0.75831090  0.44450538  0.27943244     0.14500
H4154       H  0.84249647  0.46735006  0.33853471     0.14400
H4155       H  0.77782597  0.50158948  0.29886400     0.32500
H4156       H  0.82250018  0.41053296  0.31905253     0.35300
C4157       C  0.67717113  0.44448771  0.16867641     0.20900
C4158       C  0.66555291  0.44279229  0.15159710    -0.39000
C4159       C  0.66358632  0.42365324  0.14393955     0.19900
C4160       C  0.67284076  0.40746626  0.15241819     0.22500
C4161       C  0.68414288  0.40910616  0.16978849    -0.39500
C4162       C  0.68582263  0.42825613  0.17767358     0.21300
N4163       N  0.68126104  0.46108567  0.17869346    -0.32800
C4164       C  0.69230309  0.45548931  0.19444801    -0.10300
C4165       C  0.69541813  0.43505305  0.19439481    -0.29100
N4166       N  0.66960195  0.39111818  0.14159556    -0.45700
C4167       C  0.65792455  0.39692088  0.12636125    -0.05000
C4168       C  0.65370912  0.41705636  0.12741098    -0.22400
H4169       H  0.65863154  0.45548680  0.14470972     0.19400
H4170       H  0.69119334  0.39643796  0.17658745     0.18200
H4171       H  0.70353783  0.42637951  0.20511465     0.14500
H4172       H  0.64524636  0.42580457  0.11701258     0.14400
H4173       H  0.67639041  0.47535302  0.17528221     0.32500
H4174       H  0.67509210  0.37692624  0.14428502     0.35300
C4175       C  0.67138536  0.57933766  0.32039353     0.20900
C4176       C  0.65528358  0.58751174  0.33053434    -0.39000
C4177       C  0.65991944  0.59751195  0.34797449     0.19900
C4178       C  0.67913312  0.59930183  0.35477091     0.22500
C4179       C  0.69530013  0.59113115  0.34459454    -0.39500
C4180       C  0.69066090  0.58106922  0.32710425     0.21300
N4181       N  0.67064514  0.56813103  0.30415193    -0.32800
C4182       C  0.68953109  0.56248552  0.30045401    -0.10300
C4183       C  0.70253710  0.57046441  0.31433420    -0.29100
N4184       N  0.67953601  0.60946020  0.37175495    -0.45700
C4185       C  0.66041503  0.61422144  0.37579747    -0.05000
C4186       C  0.64777158  0.60690932  0.36126953    -0.22400
H4187       H  0.64020262  0.58591803  0.32537606     0.19400
H4188       H  0.71031952  0.59227949  0.35003855     0.18200
H4189       H  0.71831269  0.56795052  0.31554874     0.14500
H4190       H  0.63187394  0.60850024  0.36025754     0.14400
H4191       H  0.65790625  0.56391525  0.29649594     0.32500
H4192       H  0.69212848  0.61281452  0.38002302     0.35300
C4193       C  0.61610215  0.59492546  0.17421841     0.20900
C4194       C  0.61627622  0.58303013  0.19118315    -0.39000
C4195       C  0.63268992  0.57055822  0.19334274     0.19900
C4196       C  0.64776824  0.56990850  0.17957512     0.22500
C4197       C  0.64745517  0.58163018  0.16239500    -0.39500
C4198       C  0.63100498  0.59419964  0.16025739     0.21300
N4199       N  0.60310706  0.60927628  0.16988685    -0.32800
C4200       C  0.60970000  0.61792778  0.15308809    -0.10300
C4201       C  0.62691657  0.60869847  0.14638439    -0.29100
N4202       N  0.66231917  0.55780073  0.18574666    -0.45700
C4203       C  0.65645725  0.55070306  0.20355645    -0.05000
C4204       C  0.63798235  0.55827111  0.20872769    -0.22400
H4205       H  0.60483204  0.58399893  0.20228996     0.19400
H4206       H  0.65947445  0.58150808  0.15186243     0.18200
H4207       H  0.63589555  0.61287698  0.13384713     0.14500
H4208       H  0.62984254  0.55566888  0.22221666     0.14400
H4209       H  0.59079395  0.61331545  0.17825581     0.32500
H4210       H  0.67564684  0.55492517  0.17850820     0.35300
C4211       C  0.65106215  0.44457207  0.31328047     0.20900
C4212       C  0.65309759  0.43039556  0.32826862    -0.39000
C4213       C  0.63585782  0.42005229  0.33323008     0.19900
C4214       C  0.61803532  0.42333646  0.32367532     0.22500
C4215       C  0.61591905  0.43777526  0.30887613    -0.39500
C4216       C  0.63313252  0.44839953  0.30413810     0.21300
N4217       N  0.66555723  0.45523023  0.30499417    -0.32800
C4218       C  0.65690849  0.46611890  0.29057898    -0.10300
C4219       C  0.63658339  0.46248829  0.28970018    -0.29100
N4220       N  0.60433527  0.41036503  0.32987244    -0.45700
C4221       C  0.61344207  0.39899097  0.34363783    -0.05000
C4222       C  0.63305712  0.40466346  0.34630254    -0.22400
H4223       H  0.66721276  0.42725775  0.33516094     0.19400
H4224       H  0.60204961  0.44014630  0.30123061     0.18200
H4225       H  0.62606259  0.46837058  0.27917371     0.14500
H4226       H  0.64403785  0.39770573  0.35565160     0.14400
H4227       H  0.68060126  0.45470038  0.30854490     0.32500
H4228       H  0.58981425  0.40900161  0.32474744     0.35300
C4229       C  0.30296280  0.31940519  0.56216801     0.20900
C4230       C  0.28641698  0.30689808  0.56402070    -0.39000
C4231       C  0.28612654  0.29040849  0.55146298     0.19900
C4232       C  0.30129300  0.28660057  0.53831053     0.22500
C4233       C  0.31769219  0.29913551  0.53637820    -0.39500
C4234       C  0.31786849  0.31568907  0.54873115     0.21300
N4235       N  0.30767502  0.33497450  0.57354663    -0.32800
C4236       C  0.32583854  0.34113978  0.56739993    -0.10300
C4237       C  0.33240604  0.32960181  0.55168499    -0.29100
N4238       N  0.29777770  0.26992323  0.52823641    -0.45700
C4239       C  0.28009059  0.26313310  0.53474751    -0.05000
C4240       C  0.27233343  0.27549065  0.54929084    -0.22400
H4241       H  0.27482309  0.30961241  0.57467375     0.19400
H4242       H  0.32965477  0.29600671  0.52625741     0.18200
H4243       H  0.34676180  0.33018133  0.54464127     0.14500
H4244       H  0.25841060  0.27390393  0.55701323     0.14400
H4245       H  0.29959530  0.33986634  0.58568141     0.32500
H4246       H  0.30664071  0.26381097  0.51721312     0.35300
C4247       C  0.18095672  0.32498881  0.45089082     0.20900
C4248       C  0.18196088  0.31235785  0.46734225    -0.39000
C4249       C  0.19469948  0.29604859  0.46557735     0.19900
C4250       C  0.20548114  0.29247017  0.44863275     0.22500
C4251       C  0.20445413  0.30508029  0.43216123    -0.39500
C4252       C  0.19182750  0.32149377  0.43400756     0.21300
N4253       N  0.16870886  0.34047038  0.44829480    -0.32800
C4254       C  0.17181187  0.34714675  0.42965027    -0.10300
C4255       C  0.18611489  0.33547649  0.42030033    -0.29100
N4256       N  0.21592046  0.27560671  0.45039383    -0.45700
C4257       C  0.21181758  0.26840221  0.46862412    -0.05000
C4258       C  0.19867856  0.28080925  0.47855714    -0.22400
H4259       H  0.17312189  0.31480642  0.48040291     0.19400
H4260       H  0.21251585  0.30207088  0.41872333     0.18200
H4261       H  0.19045057  0.33606175  0.40495979     0.14500
H4262       H  0.19267577  0.27882162  0.49321057     0.14400
H4263       H  0.15779431  0.34513376  0.45812208     0.32500
H4264       H  0.22524585  0.26936855  0.43983013     0.35300
C4265       C  0.32873872  0.18320345  0.43689082     0.20900
C4266       C  0.34585212  0.17151941  0.43548567    -0.39000
C4267       C  0.35516829  0.17139797  0.41704120     0.19900
C4268       C  0.34823272  0.18247569  0.40130647     0.22500
C4269       C  0.33087381  0.19393463  0.40262046    -0.39500
C4270       C  0.32127273  0.19370571  0.42100835     0.21300
N4271       N  0.31719735  0.18554913  0.45278915    -0.32800
C4272       C  0.30199025  0.19731812  0.44705140    -0.10300
C4273       C  0.30393184  0.20268597  0.42724100    -0.29100
N4274       N  0.36009493  0.18020878  0.38555220    -0.45700
C4275       C  0.37440553  0.16729347  0.39120836    -0.05000
C4276       C  0.37178022  0.16138580  0.41071138    -0.22400
H4277       H  0.35143147  0.16303111  0.44784196     0.19400
H4278       H  0.32521058  0.20229967  0.39022100     0.18200
H4279       H  0.29407860  0.21191385  0.41863290     0.14500
H4280       H  0.38100401  0.15141065  0.41918922     0.14400
H4281       H  0.31929961  0.17913530  0.46665727     0.32500
H4282       H  0.35844496  0.18682105  0.37171863     0.35300
C4283       C  0.14298467  0.18044027  0.59603245     0.20900
C4284       C  0.15507600  0.19596093  0.58914445    -0.39000
C4285       C  0.16880579  0.19090490  0.57440736     0.19900
C4286       C  0.17040768  0.17181739  0.56728653     0.22500
C4287       C  0.15838691  0.15636090  0.57419444    -0.39500
C4288       C  0.14461808  0.16143567  0.58878038     0.21300
N4289       N  0.12832756  0.18147078  0.60942347    -0.32800
C4290       C  0.12047152  0.16296802  0.61068904    -0.10300
C4291       C  0.13039191  0.15010136  0.59800094    -0.29100
N4292       N  0.18413449  0.17082269  0.55302574    -0.45700
C4293       C  0.19132141  0.18941754  0.55080776    -0.05000
C4294       C  0.18217018  0.20239626  0.56397830    -0.22400
H4295       H  0.15365591  0.21091801  0.59459969     0.19400
H4296       H  0.15946193  0.14150815  0.56839094     0.18200
H4297       H  0.12740256  0.13462250  0.59538891     0.14500
H4298       H  0.18476595  0.21810659  0.56553683     0.14400
H4299       H  0.12392466  0.19413009  0.61700982     0.32500
H4300       H  0.18813654  0.15826363  0.54503265     0.35300
C4301       C  0.31233005  0.14960518  0.55927848     0.20900
C4302       C  0.32964260  0.15010701  0.57075914    -0.39000
C4303       C  0.33150371  0.13505507  0.58488511     0.19900
C4304       C  0.31713168  0.12069618  0.58735426     0.22500
C4305       C  0.29988681  0.12009940  0.57577701    -0.39500
C4306       C  0.29804115  0.13512811  0.56162164     0.21300
N4307       N  0.30651407  0.16298946  0.54585947    -0.32800
C4308       C  0.28836963  0.15711350  0.53959736    -0.10300
C4309       C  0.28262283  0.13964076  0.54896759    -0.29100
N4310       N  0.32175458  0.10878443  0.60249049    -0.45700
C4311       C  0.33917966  0.11557065  0.60983442    -0.05000
C4312       C  0.34586708  0.13184246  0.59906312    -0.22400
H4313       H  0.34058661  0.16168839  0.56916846     0.19400
H4314       H  0.28848615  0.10907986  0.57802913     0.18200
H4315       H  0.26867912  0.13190053  0.54749692     0.14500
H4316       H  0.35896996  0.14063754  0.60175229     0.14400
H4317       H  0.31414179  0.17578603  0.54174538     0.32500
H4318       H  0.31334735  0.09686324  0.60757293     0.35300
C4319       C  0.18162650  0.15259327  0.43189002     0.20900
C4320       C  0.16472049  0.15285781  0.41982241    -0.39000
C4321       C  0.16190596  0.13609282  0.40801861     0.19900
C4322       C  0.17511315  0.12044147  0.40806137     0.22500
C4323       C  0.19179145  0.12000615  0.42039416    -0.39500
C4324       C  0.19443632  0.13661589  0.43242256     0.21300
N4325       N  0.18825253  0.16717415  0.44356900    -0.32800
C4326       C  0.20517430  0.16028222  0.45185956    -0.10300
C4327       C  0.20946648  0.14121958  0.44540487    -0.29100
N4328       N  0.17008563  0.10707717  0.39437315    -0.45700
C4329       C  0.15348683  0.11417607  0.38561846    -0.05000
C4330       C  0.14774683  0.13212048  0.39390238    -0.22400
H4331       H  0.15478439  0.16540309  0.41928644     0.19400
H4332       H  0.20220860  0.10784708  0.42026871     0.18200
H4333       H  0.22231117  0.13234860  0.44900148     0.14500
H4334       H  0.13555427  0.14150212  0.38943777     0.14400
H4335       H  0.18181703  0.18106228  0.44561360     0.32500
H4336       H  0.17772374  0.09410357  0.39095952     0.35300
C4337       C  0.45518766  0.21778951  0.29543656     0.20900
C4338       C  0.44295904  0.21913230  0.31213141    -0.39000
C4339       C  0.44043964  0.20152632  0.32288836     0.19900
C4340       C  0.44967763  0.18408976  0.31754688     0.22500
C4341       C  0.46191347  0.18275905  0.30096112    -0.39500
C4342       C  0.46419017  0.20021590  0.29009530     0.21300
N4343       N  0.45874971  0.23191824  0.28189552    -0.32800
C4344       C  0.46985369  0.22311608  0.26776479    -0.10300
C4345       C  0.47369059  0.20341701  0.27248447    -0.29100
N4346       N  0.44367706  0.16911949  0.32903478    -0.45700
C4347       C  0.43012935  0.17679715  0.34158664    -0.05000
C4348       C  0.42795029  0.19714597  0.33840459    -0.22400
H4349       H  0.43529399  0.23263938  0.31595429     0.19400
H4350       H  0.46848872  0.16892213  0.29637002     0.18200
H4351       H  0.48185574  0.19271363  0.26388194     0.14500
H4352       H  0.41777664  0.20721178  0.34547474     0.14400
H4353       H  0.45347761  0.24643817  0.28196604     0.32500
H4354       H  0.44760475  0.15424801  0.32761583     0.35300
C4355       C  0.53756880  0.30757132  0.29401759     0.20900
C4356       C  0.53447836  0.31792500  0.31167622    -0.39000
C4357       C  0.55164481  0.32295137  0.32223007     0.19900
C4358       C  0.57037453  0.31799835  0.31565433     0.22500
C4359       C  0.57345053  0.30753843  0.29813561    -0.39500
C4360       C  0.55634828  0.30254408  0.28761604     0.21300
N4361       N  0.52383438  0.30171407  0.28090580    -0.32800
C4362       C  0.53400820  0.29283213  0.26614192    -0.10300
C4363       C  0.55430421  0.29305338  0.26984228    -0.29100
N4364       N  0.58428826  0.32617896  0.32710763    -0.45700
C4365       C  0.57450469  0.33663317  0.34104842    -0.05000
C4366       C  0.55402012  0.33470963  0.33865063    -0.22400
H4367       H  0.51986037  0.32230808  0.31650042     0.19400
H4368       H  0.58813123  0.30409784  0.29276567     0.18200
H4369       H  0.56599864  0.28714392  0.26069282     0.14500
H4370       H  0.54239937  0.34222892  0.34660680     0.14400
H4371       H  0.50852098  0.30355649  0.28197289     0.32500
H4372       H  0.59957052  0.32584718  0.32476686     0.35300
C4373       C  0.56302959  0.17433386  0.18240725     0.20900
C4374       C  0.56444809  0.15783969  0.16996696    -0.39000
C4375       C  0.58319964  0.14903689  0.16875963     0.19900
C4376       C  0.59921358  0.15587735  0.17950131     0.22500
C4377       C  0.59787300  0.17264428  0.19168491    -0.39500
C4378       C  0.57917574  0.18172904  0.19256747     0.21300
N4379       N  0.54691787  0.18542406  0.18572405    -0.32800
C4380       C  0.55280350  0.20027361  0.19775969    -0.10300
C4381       C  0.57289736  0.19856089  0.20233104    -0.29100
N4382       N  0.61529277  0.14466174  0.17605958    -0.45700
C4383       C  0.60958000  0.13088215  0.16270886    -0.05000
C4384       C  0.58967856  0.13317267  0.15774437    -0.22400
H4385       H  0.55189417  0.15237794  0.16168572     0.19400
H4386       H  0.61049440  0.17829468  0.19972989     0.18200
H4387       H  0.58169698  0.20832771  0.21141714     0.14500
H4388       H  0.58107831  0.12425606  0.14765057     0.14400
H4389       H  0.53285468  0.18338152  0.17963963     0.32500
H4390       H  0.62938732  0.14645955  0.18213767     0.35300
C4391       C  0.40487105  0.35962804  0.17959425     0.20900
C4392       C  0.41196723  0.34823459  0.19550002    -0.39000
C4393       C  0.42673586  0.33432839  0.19093946     0.19900
C4394       C  0.43379406  0.33198367  0.17195920     0.22500
C4395       C  0.42677446  0.34342435  0.15610354    -0.39500
C4396       C  0.41204305  0.35731308  0.16067817     0.21300
N4397       N  0.39095513  0.37385375  0.18007192    -0.32800
C4398       C  0.38919761  0.38077392  0.16130258    -0.10300
C4399       C  0.40219311  0.37070769  0.14881091    -0.29100
N4400       N  0.44769483  0.31779146  0.17138831    -0.45700
C4401       C  0.44966753  0.31099862  0.19013055    -0.05000
C4402       C  0.43682359  0.32100503  0.20279893    -0.22400
H4403       H  0.40640900  0.35008137  0.21033369     0.19400
H4404       H  0.43237923  0.34163312  0.14127846     0.18200
H4405       H  0.40440402  0.37290483  0.13318076     0.14500
H4406       H  0.43507974  0.31881154  0.21850398     0.14400
H4407       H  0.38325430  0.37849653  0.19255320     0.32500
H4408       H  0.45547025  0.31307465  0.15895709     0.35300
C4409       C  0.56777010  0.31837888  0.15268564     0.20900
C4410       C  0.58144937  0.33392571  0.15375897    -0.39000
C4411       C  0.58986329  0.33976995  0.13583049     0.19900
C4412       C  0.58530141  0.33049616  0.11823397     0.22500
C4413       C  0.57133422  0.31512938  0.11710649    -0.39500
C4414       C  0.56259295  0.30954898  0.13503270     0.21300
N4415       N  0.55830538  0.30976602  0.16776665    -0.32800
C4416       C  0.54670908  0.29557262  0.15973440    -0.10300
C4417       C  0.54884760  0.29499991  0.13929003    -0.29100
N4418       N  0.59676739  0.33747734  0.10364696    -0.45700
C4419       C  0.60847218  0.35143680  0.11199119    -0.05000
C4420       C  0.60446832  0.35347590  0.13198745    -0.22400
H4421       H  0.58554967  0.34069069  0.16761298     0.19400
H4422       H  0.56785043  0.30780216  0.10337244     0.18200
H4423       H  0.54175268  0.28499365  0.12906055     0.14500
H4424       H  0.61223609  0.36263744  0.14252017     0.14400
H4425       H  0.55960465  0.31336852  0.18267529     0.32500
H4426       H  0.59716803  0.33254294  0.08907755     0.35300
C4427       C  0.41622559  0.17093088  0.13026332     0.20900
C4428       C  0.42930862  0.17042824  0.14640307    -0.39000
C4429       C  0.44149143  0.18714666  0.14869268     0.19900
C4430       C  0.44093397  0.20293608  0.13567092     0.22500
C4431       C  0.42800417  0.20335041  0.11951767    -0.39500
C4432       C  0.41560429  0.18687805  0.11746272     0.21300
N4433       N  0.40165121  0.15800428  0.12606353    -0.32800
C4434       C  0.39145086  0.16604379  0.11076448    -0.10300
C4435       C  0.39995370  0.18390804  0.10486188    -0.29100
N4436       N  0.45269497  0.21769708  0.14186484    -0.45700
C4437       C  0.46062747  0.21148307  0.15913776    -0.05000
C4438       C  0.45413739  0.19239522  0.16380596    -0.22400
H4439       H  0.42928192  0.15840026  0.15695670     0.19400
H4440       H  0.42693373  0.21605955  0.10984807     0.18200
H4441       H  0.39486954  0.19388794  0.09344424     0.14500
H4442       H  0.45749903  0.18389807  0.17692785     0.14400
H4443       H  0.39815545  0.14516778  0.13390720     0.32500
H4444       H  0.45443712  0.23154832  0.13524259     0.35300
C4445       C  0.32008861  0.55826302  0.31866228     0.20900
C4446       C  0.30675910  0.54232502  0.31858467    -0.39000
C4447       C  0.29137577  0.54353042  0.30471913     0.19900
C4448       C  0.28926295  0.55953491  0.29213361     0.22500
C4449       C  0.30255717  0.57546465  0.29225643    -0.39500
C4450       C  0.31808731  0.57411990  0.30592005     0.21300
N4451       N  0.33497367  0.56142651  0.33141359    -0.32800
C4452       C  0.34275180  0.57934699  0.32669456    -0.10300
C4453       C  0.33239449  0.58771369  0.31089025    -0.29100
N4454       N  0.27310549  0.55745510  0.28076730    -0.45700
C4455       C  0.26493891  0.53992033  0.28603559    -0.05000
C4456       C  0.27594355  0.53076656  0.30090141    -0.22400
H4457       H  0.30806950  0.53006696  0.32879036     0.19400
H4458       H  0.30072177  0.58815962  0.28268320     0.18200
H4459       H  0.33389047  0.60252149  0.30500372     0.14500
H4460       H  0.27295763  0.51675022  0.30803837     0.14400
H4461       H  0.33858855  0.55261846  0.34356029     0.32500
H4462       H  0.26802056  0.56729452  0.27000394     0.35300
C4463       C  0.28672252  0.46929289  0.19727294     0.20900
C4464       C  0.29885934  0.47005993  0.18056942    -0.39000
C4465       C  0.31466052  0.45665990  0.18030530     0.19900
C4466       C  0.31812577  0.44335117  0.19542952     0.22500
C4467       C  0.30601264  0.44267344  0.21228610    -0.39500
C4468       C  0.29023069  0.45624153  0.21263286     0.21300
N4469       N  0.27038187  0.48005097  0.20064446    -0.32800
C4470       C  0.26342725  0.47397467  0.21836668    -0.10300
C4471       C  0.27546336  0.45919401  0.22638448    -0.29100
N4472       N  0.33303377  0.43100624  0.19068521    -0.45700
C4473       C  0.33904568  0.43651877  0.17234442    -0.05000
C4474       C  0.32796513  0.45258749  0.16558532    -0.22400
H4475       H  0.29590109  0.48001753  0.16840514     0.19400
H4476       H  0.30840366  0.43207037  0.22402304     0.18200
H4477       H  0.27350772  0.45149022  0.24024547     0.14500
H4478       H  0.32857853  0.45936201  0.15113005     0.14400
H4479       H  0.26435190  0.49091215  0.19145433     0.32500
H4480       H  0.33773180  0.41882466  0.19891689     0.35300
C4481       C  0.18876224  0.58685654  0.17811560     0.20900
C4482       C  0.18865835  0.60631175  0.17082892    -0.39000
C4483       C  0.17726952  0.60949549  0.15378842     0.19900
C4484       C  0.16644915  0.59454174  0.14496089     0.22500
C4485       C  0.16684186  0.57503831  0.15201762    -0.39500
C4486       C  0.17855429  0.57178490  0.16878769     0.21300
N4487       N  0.19810676  0.58002283  0.19428993    -0.32800
C4488       C  0.19407796  0.56040067  0.19499751    -0.10300
C4489       C  0.18203567  0.55471676  0.17928750    -0.29100
N4490       N  0.15675499  0.60137029  0.12904277    -0.45700
C4491       C  0.16183819  0.62067290  0.12743098    -0.05000
C4492       C  0.17460116  0.62631803  0.14257243    -0.22400
H4493       H  0.19690717  0.61807384  0.17784316     0.19400
H4494       H  0.15869274  0.56324788  0.14492868     0.18200
H4495       H  0.17609149  0.54015370  0.17634230     0.14500
H4496       H  0.18115988  0.64072271  0.14491207     0.14400
H4497       H  0.20661055  0.58817215  0.20424145     0.32500
H4498       H  0.14782630  0.59325944  0.11942806     0.35300
C4499       C  0.16926291  0.44360104  0.32808093     0.20900
C4500       C  0.15350961  0.43660597  0.33966316    -0.39000
C4501       C  0.15824775  0.42163223  0.35322809     0.19900
C4502       C  0.17723701  0.41426633  0.35514441     0.22500
C4503       C  0.19304079  0.42133520  0.34361636    -0.39500
C4504       C  0.18829953  0.43629065  0.32999631     0.21300
N4505       N  0.16848062  0.45751783  0.31394853    -0.32800
C4506       C  0.18713702  0.45918955  0.30675719    -0.10300
C4507       C  0.19997109  0.44618765  0.31644228    -0.29100
N4508       N  0.17782722  0.39994518  0.36891224    -0.45700
C4509       C  0.15904691  0.39805566  0.37587664    -0.05000
C4510       C  0.14644104  0.41145987  0.36639882    -0.22400
H4511       H  0.13861558  0.44230104  0.33810774     0.19400
H4512       H  0.20789969  0.41552218  0.34506009     0.18200
H4513       H  0.21563492  0.44413853  0.31381069     0.14500
H4514       H  0.13076615  0.41363662  0.36876472     0.14400
H4515       H  0.15595955  0.46538983  0.30943408     0.32500
H4516       H  0.19034653  0.39192207  0.37309377     0.35300
C4517       C  0.13049619  0.60127955  0.33017826     0.20900
C4518       C  0.14840588  0.59103029  0.32815549    -0.39000
C4519       C  0.14911390  0.57716671  0.31285482     0.19900
C4520       C  0.13307911  0.57339548  0.30070423     0.22500
C4521       C  0.11521068  0.58389235  0.30253816    -0.39500
C4522       C  0.11464766  0.59810595  0.31762112     0.21300
N4523       N  0.12641650  0.61574193  0.34309708    -0.32800
C4524       C  0.10799457  0.62215229  0.33851641    -0.10300
C4525       C  0.10015661  0.61154034  0.32267936    -0.29100
N4526       N  0.13785073  0.55992277  0.28690255    -0.45700
C4527       C  0.15719530  0.55555788  0.29005612    -0.05000
C4528       C  0.16467074  0.56596648  0.30612133    -0.22400
H4529       H  0.16105464  0.59400966  0.33748940     0.19400
H4530       H  0.10286089  0.58153911  0.29264571     0.18200
H4531       H  0.08587820  0.61353866  0.31570612     0.14500
H4532       H  0.17965847  0.56574387  0.31177354     0.14400
H4533       H  0.13586006  0.62142373  0.35388733     0.32500
H4534       H  0.12885233  0.55477669  0.27548794     0.35300
C4535       C  0.13143168  0.42199582  0.16666141     0.20900
C4536       C  0.14652568  0.43624139  0.16646465    -0.39000
C4537       C  0.14809716  0.44786004  0.18351199     0.19900
C4538       C  0.13546587  0.44566008  0.19943489     0.22500
C4539       C  0.12039565  0.43144581  0.19961476    -0.39500
C4540       C  0.11900189  0.41968602  0.18270098     0.21300
N4541       N  0.12733004  0.40852284  0.15267147    -0.32800
C4542       C  0.11233410  0.39742294  0.16002959    -0.10300
C4543       C  0.10672694  0.40406334  0.17868449    -0.29100
N4544       N  0.14073589  0.45770730  0.21426503    -0.45700
C4545       C  0.15702070  0.46743372  0.20782759    -0.05000
C4546       C  0.16196540  0.46179862  0.18867756    -0.22400
H4547       H  0.15664568  0.43778888  0.15420223     0.19400
H4548       H  0.11082443  0.42930616  0.21222416     0.18200
H4549       H  0.09518184  0.39829827  0.18812595     0.14500
H4550       H  0.17451325  0.46666105  0.18002144     0.14400
H4551       H  0.13459147  0.40673228  0.13921621     0.32500
H4552       H  0.13424542  0.45856302  0.22820264     0.35300
C4553       C  0.78514236  0.80113634  0.04228862     0.20900
C4554       C  0.78419000  0.81714379  0.05548373    -0.39000
C4555       C  0.80112254  0.82926601  0.05630061     0.19900
C4556       C  0.81760852  0.82572746  0.04476603     0.22500
C4557       C  0.81852862  0.80982735  0.03158909    -0.39500
C4558       C  0.80175902  0.79766892  0.03090312     0.21300
N4559       N  0.77161186  0.78673816  0.03956052    -0.32800
C4560       C  0.77987391  0.77394726  0.02653741    -0.10300
C4561       C  0.79860234  0.78036916  0.02076884    -0.29100
N4562       N  0.83245521  0.83797123  0.04963521    -0.45700
C4563       C  0.82566029  0.84939707  0.06456298    -0.05000
C4564       C  0.80597244  0.84451436  0.06895878    -0.22400
H4565       H  0.77154494  0.81951938  0.06496796     0.19400
H4566       H  0.83169313  0.80666116  0.02308406     0.18200
H4567       H  0.80871209  0.77314238  0.01073514     0.14500
H4568       H  0.79692058  0.85001844  0.08087191     0.14400
H4569       H  0.75787003  0.78542555  0.04648477     0.32500
H4570       H  0.84687441  0.83763534  0.04409640     0.35300
C4571       C  0.69107167  0.79663810  0.95924262     0.20900
C4572       C  0.67954153  0.81349978  0.96305240    -0.39000
C4573       C  0.67430697  0.82485856  0.94649786     0.19900
C4574       C  0.67995932  0.81963344  0.92763518     0.22500
C4575       C  0.69147561  0.80281205  0.92381742    -0.39500
C4576       C  0.69687898  0.79159334  0.94036051     0.21300
N4577       N  0.69805104  0.78348176  0.97240794    -0.32800
C4578       C  0.70849460  0.77004714  0.96184682    -0.10300
C4579       C  0.70808428  0.77461789  0.94178752    -0.29100
N4580       N  0.67225377  0.83217302  0.91435643    -0.45700
C4581       C  0.66165292  0.84564831  0.92470547    -0.05000
C4582       C  0.66263918  0.84156407  0.94490393    -0.22400
H4583       H  0.67488947  0.81740986  0.97779346     0.19400
H4584       H  0.69580515  0.79869981  0.90903183     0.18200
H4585       H  0.71513917  0.76666828  0.92988520     0.14500
H4586       H  0.65497408  0.84897735  0.95675473     0.14400
H4587       H  0.69605913  0.78377782  0.98766827     0.32500
H4588       H  0.67344757  0.83117192  0.89904309     0.35300
C4589       C  0.67230749  0.69565242  0.06953814     0.20900
C4590       C  0.65676474  0.70198331  0.08175258    -0.39000
C4591       C  0.64563694  0.68694146  0.09084379     0.19900
C4592       C  0.64965345  0.66710229  0.08805569     0.22500
C4593       C  0.66526725  0.66075413  0.07593441    -0.39500
C4594       C  0.67636478  0.67579194  0.06678780     0.21300
N4595       N  0.68437061  0.70698211  0.05841594    -0.32800
C4596       C  0.69611053  0.69424215  0.04834952    -0.10300
C4597       C  0.69164133  0.67466991  0.05336777    -0.29100
N4598       N  0.63668211  0.65576203  0.09807648    -0.45700
C4599       C  0.62427924  0.66844767  0.10744377    -0.05000
C4600       C  0.62947980  0.68805174  0.10318245    -0.22400
H4601       H  0.65336727  0.71748438  0.08377851     0.19400
H4602       H  0.66832857  0.64524094  0.07350983     0.18200
H4603       H  0.69822186  0.66136263  0.04743898     0.14500
H4604       H  0.62236797  0.70143377  0.10823896     0.14400
H4605       H  0.68418054  0.72238455  0.05725794     0.32500
H4606       H  0.63648108  0.64033657  0.09856225     0.35300
C4607       C  0.84906488  0.68395577  0.89681602     0.20900
C4608       C  0.83272515  0.69672025  0.89858154    -0.39000
C4609       C  0.82379758  0.69745985  0.91726447     0.19900
C4610       C  0.83080177  0.68648449  0.93302968     0.22500
C4611       C  0.84682599  0.67333220  0.93114376    -0.39500
C4612       C  0.85560478  0.67242677  0.91239604     0.21300
N4613       N  0.86063683  0.68132839  0.88090533    -0.32800
C4614       C  0.87447811  0.66780985  0.88626056    -0.10300
C4615       C  0.87171258  0.66175348  0.90574812    -0.29100
N4616       N  0.82008016  0.69016905  0.94930692    -0.45700
C4617       C  0.80588908  0.70332114  0.94386155    -0.05000
C4618       C  0.80767047  0.70814375  0.92391615    -0.22400
H4619       H  0.82747769  0.70558891  0.88635003     0.19400
H4620       H  0.85219554  0.66460487  0.94342710     0.18200
H4621       H  0.88077904  0.65156081  0.91413768     0.14500
H4622       H  0.79835106  0.71800512  0.91541742     0.14400
H4623       H  0.85930385  0.68840358  0.86726771     0.32500
H4624       H  0.82191133  0.68365096  0.96316416     0.35300
C4625       C  0.69837255  0.65625042  0.91837071     0.20900
C4626       C  0.69270747  0.65486310  0.89853764    -0.39000
C4627       C  0.67709655  0.64183765  0.89453899     0.19900
C4628       C  0.66776593  0.63100844  0.90916173     0.22500
C4629       C  0.67371797  0.63212479  0.92901196    -0.39500
C4630       C  0.68940398  0.64518622  0.93304372     0.21300
N4631       N  0.71204863  0.66839403  0.92602198    -0.32800
C4632       C  0.71193520  0.66510388  0.94573894    -0.10300
C4633       C  0.69814482  0.65053111  0.95070633    -0.29100
N4634       N  0.65366216  0.61931381  0.90136226    -0.45700
C4635       C  0.65426342  0.62256354  0.88164507    -0.05000
C4636       C  0.66869201  0.63650426  0.87685567    -0.22400
H4637       H  0.69987226  0.66339332  0.88706329     0.19400
H4638       H  0.66658426  0.62356222  0.94047508     0.18200
H4639       H  0.69428797  0.64536239  0.96531141     0.14500
H4640       H  0.67312519  0.64127598  0.86227486     0.14400
H4641       H  0.72055798  0.67874885  0.91833484     0.32500
H4642       H  0.64506425  0.60884889  0.90878929     0.35300
C4643       C  0.80313002  0.64172235  0.05325269     0.20900
C4644       C  0.80385779  0.62514082  0.06566238    -0.39000
C4645       C  0.82016891  0.62416943  0.07843533     0.19900
C4646       C  0.83488876  0.63840882  0.07869190     0.22500
C4647       C  0.83418240  0.65501097  0.06623595    -0.39500
C4648       C  0.81768740  0.65613789  0.05364231     0.21300
N4649       N  0.78826352  0.64695848  0.04109859    -0.32800
C4650       C  0.79324369  0.66499813  0.03394122    -0.10300
C4651       C  0.81157972  0.67110097  0.04127113    -0.29100
N4652       N  0.84811935  0.63463898  0.09310891    -0.45700
C4653       C  0.84149366  0.61808206  0.10229750    -0.05000
C4654       C  0.82421695  0.61107838  0.09340388    -0.22400
H4655       H  0.79214274  0.61422611  0.06596000     0.19400
H4656       H  0.84521058  0.66660147  0.06687658     0.18200
H4657       H  0.81897868  0.68505753  0.03864317     0.14500
H4658       H  0.81541619  0.59841053  0.09769257     0.14400
H4659       H  0.77510817  0.63923204  0.03864049     0.32500
H4660       H  0.86026871  0.64330218  0.09706791     0.35300
C4661       C  0.30554070  0.79595854  0.46116690     0.20900
C4662       C  0.32242658  0.80795005  0.46232678    -0.39000
C4663       C  0.32272595  0.82429090  0.44958651     0.19900
C4664       C  0.30745001  0.82834102  0.43659325     0.22500
C4665       C  0.29045466  0.81643328  0.43557900    -0.39500
C4666       C  0.29009325  0.80013140  0.44840266     0.21300
N4667       N  0.30202862  0.77917718  0.47118130    -0.32800
C4668       C  0.28413101  0.77268053  0.46488449    -0.10300
C4669       C  0.27619209  0.78538091  0.45069596    -0.29100
N4670       N  0.31234152  0.84330751  0.42446613    -0.45700
C4671       C  0.33101075  0.84868536  0.42961948    -0.05000
C4672       C  0.33772785  0.83739429  0.44554228    -0.22400
H4673       H  0.33472292  0.80443818  0.47195809     0.19400
H4674       H  0.27867654  0.81928209  0.42512728     0.18200
H4675       H  0.26223903  0.78391149  0.44298695     0.14500
H4676       H  0.35240201  0.83750387  0.45196507     0.14400
H4677       H  0.31121654  0.77258684  0.48170606     0.32500
H4678       H  0.30397883  0.84824957  0.41250071     0.35300
C4679       C  0.19938878  0.79978682  0.53301323     0.20900
C4680       C  0.18962082  0.81784910  0.52972187    -0.39000
C4681       C  0.18459251  0.82857824  0.54669732     0.19900
C4682       C  0.18895283  0.82174262  0.56543286     0.22500
C4683       C  0.19864647  0.80370709  0.56872601    -0.39500
C4684       C  0.20373047  0.79306038  0.55180628     0.21300
N4685       N  0.20558934  0.78674839  0.51942427    -0.32800
C4686       C  0.21402552  0.77170440  0.52968145    -0.10300
C4687       C  0.21311009  0.77510777  0.54991926    -0.29100
N4688       N  0.18136099  0.83380192  0.57911494    -0.45700
C4689       C  0.17180564  0.84839163  0.56919803    -0.05000
C4690       C  0.17373760  0.84575600  0.54883187    -0.22400
H4691       H  0.18589062  0.82298299  0.51506256     0.19400
H4692       H  0.20170983  0.79821416  0.58341229     0.18200
H4693       H  0.21862596  0.76573479  0.56165641     0.14500
H4694       H  0.16687026  0.85420053  0.53713114     0.14400
H4695       H  0.20435188  0.78809443  0.50413483     0.32500
H4696       H  0.18147460  0.83152015  0.59434807     0.35300
C4697       C  0.17785099  0.67882456  0.42510514     0.20900
C4698       C  0.16816752  0.66309318  0.41555708    -0.39000
C4699       C  0.15176470  0.66828625  0.40385666     0.19900
C4700       C  0.14556181  0.68766017  0.40180545     0.22500
C4701       C  0.15528497  0.70338597  0.41129506    -0.39500
C4702       C  0.17167093  0.69821589  0.42299715     0.21300
N4703       N  0.19320925  0.67769922  0.43770094    -0.32800
C4704       C  0.19688362  0.69648983  0.44373391    -0.10300
C4705       C  0.18381057  0.70973239  0.43473193    -0.29100
N4706       N  0.12933377  0.68869012  0.39033690    -0.45700
C4707       C  0.12500633  0.66982229  0.38497417    -0.05000
C4708       C  0.13877429  0.65668239  0.39316976    -0.22400
H4709       H  0.17285287  0.64789241  0.41737959     0.19400
H4710       H  0.15026506  0.71852243  0.40990310     0.18200
H4711       H  0.18289964  0.72554561  0.43695697     0.14500
H4712       H  0.13923184  0.64076837  0.39170482     0.14400
H4713       H  0.20050794  0.66484366  0.44222803     0.32500
H4714       H  0.12149318  0.70152128  0.38681258     0.35300
C4715       C  0.32909352  0.68230789  0.56005350     0.20900
C4716       C  0.34444361  0.66842835  0.56222622    -0.39000
C4717       C  0.35406351  0.66837602  0.58057213     0.19900
C4718       C  0.34900422  0.68148432  0.59536714     0.22500
C4719       C  0.33350500  0.69516393  0.59327931    -0.39500
C4720       C  0.32359261  0.69490918  0.57512779     0.21300
N4721       N  0.31768070  0.68529043  0.54411956    -0.32800
C4722       C  0.30458113  0.69959667  0.54918011    -0.10300
C4723       C  0.30769229  0.70592157  0.56846876    -0.29100
N4724       N  0.36078252  0.67902104  0.61110300    -0.45700
C4725       C  0.37326956  0.66404202  0.60650595    -0.05000
C4726       C  0.36949999  0.65690664  0.58759054    -0.22400
H4727       H  0.34855451  0.65840430  0.55051429     0.19400
H4728       H  0.32943700  0.70523054  0.60496769     0.18200
H4729       H  0.29958593  0.71715349  0.57642606     0.14500
H4730       H  0.37742155  0.64541499  0.57981259     0.14400
H4731       H  0.31847221  0.67777971  0.53070859     0.32500
H4732       H  0.36036798  0.68708780  0.62420229     0.35300
C4733       C  0.18065651  0.62643218  0.58650343     0.20900
C4734       C  0.19626853  0.62505480  0.57294945    -0.39000
C4735       C  0.19891250  0.64153060  0.56067894     0.19900
C4736       C  0.18707974  0.65818352  0.56214051     0.22500
C4737       C  0.17131814  0.65945317  0.57551497    -0.39500
C4738       C  0.16847025  0.64285336  0.58754272     0.21300
N4739       N  0.17557916  0.61309838  0.60022585    -0.32800
C4740       C  0.15992931  0.62097080  0.60992560    -0.10300
C4741       C  0.15491177  0.63946034  0.60235614    -0.29100
N4742       N  0.19365381  0.67248423  0.55013707    -0.45700
C4743       C  0.20963354  0.66487226  0.54081259    -0.05000
C4744       C  0.21331559  0.64549408  0.54679583    -0.22400
H4745       H  0.20589253  0.61227729  0.57230575     0.19400
H4746       H  0.16221746  0.67256427  0.57673943     0.18200
H4747       H  0.14336524  0.64930494  0.60740911     0.14500
H4748       H  0.22561843  0.63615278  0.54262377     0.14400
H4749       H  0.18234187  0.59944300  0.60280813     0.32500
H4750       H  0.18805759  0.68683452  0.54886871     0.35300
C4751       C  0.30313930  0.64506571  0.43446376     0.20900
C4752       C  0.30313623  0.62932630  0.42114091    -0.39000
C4753       C  0.32013793  0.62755093  0.40953043     0.19900
C4754       C  0.33607438  0.64030988  0.41112098     0.22500
C4755       C  0.33606341  0.65614491  0.42444837    -0.39500
C4756       C  0.31892507  0.65805104  0.43596771     0.21300
N4757       N  0.28829506  0.65046815  0.44640517    -0.32800
C4758       C  0.29457069  0.66714238  0.45543063    -0.10300
C4759       C  0.31361806  0.67233346  0.44936716    -0.29100
N4760       N  0.35005284  0.63585154  0.39774541    -0.45700
C4761       C  0.34275073  0.62032959  0.38742386    -0.05000
C4762       C  0.32420024  0.61468476  0.39450742    -0.22400
H4763       H  0.29059383  0.61949491  0.41955868     0.19400
H4764       H  0.34824468  0.66649421  0.42541548     0.18200
H4765       H  0.32217507  0.68511818  0.45376574     0.14500
H4766       H  0.31470930  0.60296494  0.38919033     0.14400
H4767       H  0.27449257  0.64364358  0.44779677     0.32500
H4768       H  0.36331487  0.64339934  0.39531099     0.35300
loop_ 
_geom_bond_atom_site_label_1 
_geom_bond_atom_site_label_2 
_geom_bond_distance 
_geom_bond_site_symmetry_2 
_ccdc_geom_bond_type 
O1           C17   1.276       .  A
O1           Zn7   2.014       .  S
C2           O18   1.271       .  A
C2           O15   1.276       .  A
C2         C4722   1.470       .  S
O3           C16   1.277       .  A
O3          Cd10   2.076       .  S
O4           C22   1.272       .  A
O4          Cd13   2.047       .  S
O5           C19   1.278       .  A
O5           Cd9   2.087       .  S
O6           C17   1.278       .  A
O6           Cd9   2.084       .  S
Zn7          O18   2.004       .  S
Zn7          O20   1.989       .  S
Zn7          O12   1.907       .  S
O8           C19   1.276       .  A
O8          Cd13   2.060       .  S
Cd9          O11   2.108       .  S
Cd9          O12   1.987       .  S
Cd10         O14   2.074       .  S
Cd10         O23   2.094       .  S
Cd10         O12   1.986       .  S
O11          C21   1.281       .  A
O12         Cd13   1.975       .  S
Cd13         O15   2.090       .  S
O14          C21   1.275       .  A
C16          O20   1.272       .  A
C16        C4758   1.465       .  S
C17        C4668   1.471       .  S
C19        C4686   1.471       .  S
C21        C4704   1.483       .  S
C22          O23   1.278       .  A
C22        C4743   1.463       .  S
O24          C40   1.272       .  A
O24         Zn30   2.022       .  S
C25          O41   1.277       .  A
C25          O38   1.278       .  A
C25        C4560   1.477       .  S
O26          C39   1.280       .  A
O26         Cd33   2.100       .  S
O27          C45   1.281       .  A
O27         Cd36   2.113       .  S
O28          C42   1.279       .  A
O28         Cd32   2.079       .  S
O29          C40   1.276       .  A
O29         Cd32   2.095       .  S
Zn30         O41   2.023   1_556  S
Zn30         O43   1.992   1_556  S
Zn30         O35   1.912       .  S
O31          C42   1.278       .  A
O31         Cd36   2.083   1_556  S
Cd32         O34   2.055       .  S
Cd32         O35   1.992       .  S
Cd33         O37   2.105   1_554  S
Cd33         O46   2.074       .  S
Cd33         O35   1.994   1_554  S
O34          C44   1.274       .  A
O35         Cd36   2.004   1_556  S
Cd36         O38   2.092       .  S
O37          C44   1.280       .  A
C39          O43   1.273       .  A
C39        C4650   1.473       .  S
C40        C4617   1.480       .  S
C42        C4578   1.474       .  S
C44        C4632   1.474       .  S
C45          O46   1.276       .  A
C45        C4596   1.484       .  S
O47          C63   1.272       .  A
O47         Zn53   2.001       .  S
C48          O64   1.276       .  A
C48          O61   1.277       .  A
C48        C4470   1.473       .  S
O49          C62   1.278       .  A
O49         Cd56   2.090       .  S
O50          C68   1.278       .  A
O50         Cd59   2.091       .  S
O51          C65   1.277       .  A
O51         Cd55   2.077       .  S
O52          C63   1.276       .  A
O52         Cd55   2.091       .  S
Zn53         O64   2.020       .  S
Zn53         O66   1.992       .  S
Zn53         O58   1.909       .  S
O54          C65   1.276       .  A
O54         Cd59   2.075       .  S
Cd55         O57   2.069       .  S
Cd55         O58   1.979       .  S
Cd56         O60   2.096       .  S
Cd56         O69   2.072       .  S
Cd56         O58   1.988       .  S
O57          C67   1.276       .  A
O58         Cd59   1.989       .  S
Cd59         O61   2.080       .  S
O60          C67   1.279       .  A
C62          O66   1.272       .  A
C62        C4545   1.469       .  S
C63        C4488   1.471       .  S
C65        C4455   1.472       .  S
C67        C4527   1.471       .  S
C68          O69   1.276       .  A
C68        C4506   1.477       .  S
O70          C86   1.272       .  A
O70         Zn76   2.004       .  S
C71          O87   1.276       .  A
C71          O84   1.278       .  A
C71        C4344   1.472       .  S
O72          C85   1.279       .  A
O72         Cd79   2.094       .  S
O73          C91   1.281       .  A
O73         Cd82   2.107       .  S
O74          C88   1.276       .  A
O74         Cd78   2.065       .  S
O75          C86   1.276       .  A
O75         Cd78   2.091       .  S
Zn76         O87   2.009       .  S
Zn76         O89   2.013       .  S
Zn76         O81   1.913       .  S
O77          C88   1.277       .  A
O77         Cd82   2.085       .  S
Cd78         O80   2.053       .  S
Cd78         O81   1.984       .  S
Cd79         O83   2.095       .  S
Cd79         O92   2.073       .  S
Cd79         O81   1.989       .  S
O80          C90   1.273       .  A
O81         Cd82   2.002       .  S
Cd82         O84   2.085       .  S
O83          C90   1.278       .  A
C85          O89   1.274       .  A
C85        C4437   1.476       .  S
C86        C4380   1.473       .  S
C88        C4362   1.472       .  S
C90        C4416   1.468       .  S
C91          O92   1.276       .  A
C91        C4401   1.481       .  S
O93         C109   1.272       .  A
O93         Zn99   2.005       .  S
C94         O110   1.275       .  A
C94         O107   1.276       .  A
C94        C4239   1.471       .  S
O95         C108   1.279       .  A
O95        Cd102   2.100       .  S
O96         C114   1.278       .  A
O96        Cd105   2.094       .  S
O97         C111   1.278       .  A
O97        Cd101   2.082       .  S
O98         C109   1.277       .  A
O98        Cd101   2.103       .  S
Zn99        O110   2.015       .  S
Zn99        O112   1.993       .  S
Zn99        O104   1.910       .  S
O100        C111   1.279       .  A
O100       Cd105   2.087       .  S
Cd101       O103   2.073       .  S
Cd101       O104   1.991       .  S
Cd102       O106   2.095       .  S
Cd102       O115   2.076       .  S
Cd102       O104   1.995       .  S
O103        C113   1.276       .  A
O104       Cd105   1.996       .  S
Cd105       O107   2.078       .  S
O106        C113   1.280       .  A
C108        O112   1.272       .  A
C108       C4308   1.474       .  S
C109       C4272   1.476       .  S
C111       C4257   1.478       .  S
C113       C4326   1.468       .  S
C114        O115   1.276       .  A
C114       C4293   1.479       .  S
O116        C132   1.276       .  A
O116       Zn122   2.015       .  S
C117        O133   1.274       .  A
C117        O130   1.277       .  A
C117       C4164   1.477       .  S
O118        C131   1.279       .  A
O118       Cd125   2.093       .  S
O119        C137   1.273       .  A
O119       Cd128   2.055       .  S
O120        C134   1.278       .  A
O120       Cd124   2.094       .  S
O121        C132   1.278       .  A
O121       Cd124   2.087       .  S
Zn122       O133   2.014       .  S
Zn122       O135   2.015       .  S
Zn122       O127   1.915       .  S
O123        C134   1.277       .  A
O123       Cd128   2.076       .  S
Cd124       O126   2.097       .  S
Cd124       O127   2.003       .  S
Cd125       O129   2.060       .  S
Cd125       O138   2.104       .  S
Cd125       O127   1.995       .  S
O126        C136   1.279       .  A
O127       Cd128   1.983       .  S
Cd128       O130   2.097       .  S
O129        C136   1.274       .  A
C131        O135   1.274       .  A
C131       C4203   1.477       .  S
C132       C4131   1.473       .  S
C134       C4146   1.479       .  S
C136       C4182   1.473       .  S
C137        O138   1.279       .  A
C137       C4218   1.471       .  S
O139        C155   1.277       .  A
O139       Zn145   2.020       .  S
C140        O156   1.272       .  A
C140        O153   1.275       .  A
C140       C4074   1.470       .  S
O141        C154   1.278       .  A
O141       Cd148   2.087       .  S
O142        C160   1.275       .  A
O142       Cd151   2.063       .  S
O143        C157   1.276       .  A
O143       Cd147   2.076   1_655  S
O144        C155   1.276       .  A
O144       Cd147   2.080       .  S
Zn145       O156   2.004   1_455  S
Zn145       O158   1.992       .  S
Zn145       O150   1.913   1_455  S
O146        C157   1.275       .  A
O146       Cd151   2.062       .  S
Cd147       O149   2.091       .  S
Cd147       O150   1.996   1_455  S
Cd148       O152   2.064       .  S
Cd148       O161   2.098   1_455  S
Cd148       O150   1.988   1_455  S
O149        C159   1.278       .  A
O150       Cd151   1.981       .  S
Cd151       O153   2.084       .  S
O152        C159   1.274       .  A
C154        O158   1.272       .  A
C154       C4110   1.468       .  S
C155       C4020   1.473       .  S
C157       C4038   1.468       .  S
C159       C4056   1.474       .  S
C160        O161   1.279       .  A
C160       C4095   1.473       .  S
O162        C178   1.273       .  A
O162       Zn168   2.019       .  S
C163        O179   1.276       .  A
C163        O176   1.280       .  A
C163       C3915   1.474       .  S
O164        C177   1.278       .  A
O164       Cd171   2.087       .  S
O165        C183   1.281       .  A
O165       Cd174   2.123       .  S
O166        C180   1.279       .  A
O166       Cd170   2.080       .  S
O167        C178   1.279       .  A
O167       Cd170   2.121       .  S
Zn168       O179   2.012   1_545  S
Zn168       O181   1.990   1_545  S
Zn168       O173   1.917       .  S
O169        C180   1.277       .  A
O169       Cd174   2.078   1_545  S
Cd170       O172   2.067       .  S
Cd170       O173   1.989       .  S
Cd171       O175   2.099   1_565  S
Cd171       O184   2.074       .  S
Cd171       O173   1.987   1_565  S
O172        C182   1.275       .  A
O173       Cd174   2.008   1_545  S
Cd174       O176   2.098       .  S
O175        C182   1.279       .  A
C177        O181   1.271       .  A
C177       C3984   1.469       .  S
C178       C3948   1.485       .  S
C180       C3930   1.474       .  S
C182       C4002   1.470       .  S
C183        O184   1.276       .  A
C183       C3966   1.489       .  S
O185        C201   1.277       .  A
O185       Zn191   2.010       .  S
C186        O202   1.273       .  A
C186        O199   1.274       .  A
C186       C3840   1.471       .  S
O187        C200   1.276       .  A
O187       Cd194   2.072       .  S
O188        C206   1.274       .  A
O188       Cd197   2.050       .  S
O189        C203   1.276       .  A
O189       Cd193   2.077       .  S
O190        C201   1.278       .  A
O190       Cd193   2.079       .  S
Zn191       O202   2.016       .  S
Zn191       O204   1.994       .  S
Zn191       O196   1.901       .  S
O192        C203   1.275       .  A
O192       Cd197   2.063       .  S
Cd193       O195   2.097       .  S
Cd193       O196   1.988       .  S
Cd194       O198   2.057       .  S
Cd194       O207   2.071       .  S
Cd194       O196   1.973       .  S
O195        C205   1.279       .  A
O196       Cd197   1.972       .  S
Cd197       O199   2.081       .  S
O198        C205   1.273       .  A
C200        O204   1.272       .  A
C200       C3897   1.464       .  S
C201       C3807   1.468       .  S
C203       C3822   1.468       .  S
C205       C3858   1.474       .  S
C206        O207   1.276       .  A
C206       C3876   1.462       .  S
C208        C209   1.536       .  S
C208        C214   1.531       .  S
C208        C212   1.535       .  S
C208       C3786   1.513       .  S
C209        H216   1.086       .  S
C209        C210   1.367       .  D
C210        C211   1.540       .  S
C210       C3768   1.480       .  S
C211        C215   1.541       .  S
C211        C213   1.549       .  S
C211        H217   1.106       .  S
C212        H218   1.082       .  S
C212        C213   1.371       .  D
C213       C3861   1.489       .  S
C214        H219   1.085       .  S
C214        C215   1.363       .  D
C215       C3987   1.486       .  S
C220        C221   1.545       .  S
C220        C226   1.530       .  S
C220        C224   1.539       .  S
C220       C3753   1.517       .  S
C221        H228   1.085       .  S
C221        C222   1.367       .  D
C222        C223   1.538       .  S
C222       C3951   1.486       .  S
C223        C227   1.539       .  S
C223        C225   1.544       .  S
C223        H229   1.109       .  S
C224        H230   1.085       .  S
C224        C225   1.372       .  D
C225       C3732   1.487       .  S
C226        H231   1.087       .  S
C226        C227   1.361       .  D
C227       C4092   1.473       .  S
C232        C233   1.538       .  S
C232        C238   1.529       .  S
C232        C236   1.539       .  S
C232       C3714   1.507       .  S
C233        H240   1.084       .  S
C233        C234   1.370       .  D
C234        C235   1.546       .  S
C234       C3678   1.489       .  S
C235        C239   1.529       .  S
C235        C237   1.543       .  S
C235        H241   1.105       .  S
C236        H242   1.083       .  S
C236        C237   1.368       .  D
C237       C3699   1.488       .  S
C238        H243   1.087       .  S
C238        C239   1.357       .  D
C239       C3879   1.460       .  S
C244        C245   1.539       .  S
C244        C250   1.532       .  S
C244        C248   1.535       .  S
C244       C3663   1.509       .  S
C245        H252   1.085       .  S
C245        C246   1.368       .  D
C246        C247   1.542       .  S
C246       C3642   1.475       .  S
C247        C251   1.535       .  S
C247        C249   1.545       .  S
C247        H253   1.109       .  S
C248        H254   1.085       .  S
C248        C249   1.366       .  D
C249       C4059   1.486       .  S
C250        H255   1.086       .  S
C250        C251   1.360       .  D
C251       C4329   1.475       .  S
C256        C257   1.539       .  S
C256        C262   1.529       .  S
C256        C260   1.537       .  S
C256       C3624   1.517       .  S
C257        H264   1.083       .  S
C257        C258   1.370       .  D
C258        C259   1.550       .  S
C258       C4290   1.494       .  S
C259        C263   1.544       .  S
C259        C261   1.549       .  S
C259        H265   1.105       .  S
C260        H266   1.085       .  S
C260        C261   1.372       .  D
C261       C3609   1.497       .  S
C262        H267   1.086       .  S
C262        C263   1.360       .  D
C263       C3591   1.486       .  S
C268        C269   1.544       .  S
C268        C274   1.530       .  S
C268        C272   1.536       .  S
C268       C4689   1.510       .  S
C269        H276   1.084       .  S
C269        C270   1.370       .  D
C270        C271   1.539       .  S
C270       C3573   1.477       .  S
C271        C275   1.533       .  S
C271        C273   1.542       .  S
C271        H277   1.111       .  S
C272        H278   1.086       .  S
C272        C273   1.367       .  D
C273       C3537   1.481       .  S
C274        H279   1.087       .  S
C274        C275   1.359       .  D
C275       C3555   1.468       .  S
O280        C296   1.278       .  A
O280       Zn286   2.051   1_455  S
C281        O297   1.276       .  A
C281        O294   1.275       .  A
C281       C3771   1.480       .  S
O282        C295   1.277       .  A
O282       Cd289   2.089       .  S
O283        C301   1.273       .  A
O283       Cd292   2.051       .  S
O284        C298   1.276       .  A
O284       Cd288   2.085   1_565  S
O285        C296   1.274       .  A
O285       Cd288   2.068       .  S
Zn286       O297   2.045   1_545  S
Zn286       O299   2.015       .  S
Zn286       O291   1.959       .  S
O287        C298   1.274       .  A
O287       Cd292   2.071   1_455  S
Cd288       O290   2.072       .  S
Cd288       O291   2.002   1_455  S
Cd289       O293   2.117       .  S
Cd289       O302   2.108       .  S
Cd289       O291   2.029       .  S
O290        C300   1.275       .  A
O291       Cd292   2.000   1_545  S
Cd292       O294   2.084       .  S
O293        C300   1.280   1_655  A
C295        O299   1.274       .  A
C295       C3735   1.474       .  S
C296       C3645   1.476       .  S
C298       C3570   1.473       .  S
C300       C3606   1.486       .  S
C301        O302   1.279   1_565  A
C301       C3696   1.476       .  S
O303        C319   1.272       .  A
O303       Zn309   2.007       .  S
C304        O320   1.277       .  A
C304        O317   1.279       .  A
C304       C3444   1.477       .  S
O305        C318   1.277       .  A
O305       Cd312   2.085       .  S
O306        C324   1.280       .  A
O306       Cd315   2.101       .  S
O307        C321   1.277       .  A
O307       Cd311   2.078       .  S
O308        C319   1.276       .  A
O308       Cd311   2.093       .  S
Zn309       O320   2.027       .  S
Zn309       O322   2.000       .  S
Zn309       O314   1.907       .  S
O310        C321   1.278       .  A
O310       Cd315   2.087       .  S
Cd311       O313   2.059       .  S
Cd311       O314   1.978       .  S
Cd312       O316   2.083       .  S
Cd312       O325   2.060       .  S
Cd312       O314   1.993       .  S
O313        C323   1.275       .  A
O314       Cd315   1.993       .  S
Cd315       O317   2.092       .  S
O316        C323   1.277       .  A
C318        O322   1.274       .  A
C318       C3498   1.470       .  S
C319       C3465   1.475       .  S
C321       C3750   1.476       .  S
C323       C3516   1.467       .  S
C324        O325   1.273       .  A
C324       C3480   1.475       .  S
O326        C342   1.274       .  A
O326       Zn332   2.023       .  S
C327        O343   1.275       .  A
C327        O340   1.275       .  A
C327       C3375   1.468       .  S
O328        C341   1.276       .  A
O328       Cd335   2.072       .  S
O329        C347   1.278       .  A
O329       Cd338   2.097       .  S
O330        C344   1.277       .  A
O330       Cd334   2.076       .  S
O331        C342   1.275       .  A
O331       Cd334   2.083       .  S
Zn332       O343   2.005   1_455  S
Zn332       O345   2.006   1_455  S
Zn332       O337   1.917       .  S
O333        C344   1.277       .  A
O333       Cd338   2.077   1_455  S
Cd334       O336   2.052       .  S
Cd334       O337   1.973       .  S
Cd335       O339   2.079   1_655  S
Cd335       O348   2.058       .  S
Cd335       O337   1.985   1_655  S
O336        C346   1.273       .  A
O337       Cd338   1.993   1_455  S
Cd338       O340   2.073       .  S
O339        C346   1.276       .  A
C341        O345   1.273       .  A
C341       C3429   1.467       .  S
C342       C3408   1.470       .  S
C344       C3393   1.474       .  S
C346       C3552   1.461       .  S
C347        O348   1.274       .  A
C347       C3681   1.475       .  S
C349        C350   1.534       .  S
C349        C355   1.531       .  S
C349        C353   1.532       .  S
C349       C3357   1.510       .  S
C350        H357   1.083       .  S
C350        C351   1.365       .  D
C351        C352   1.545       .  S
C351       C3411   1.478       .  S
C352        C356   1.537       .  S
C352        C354   1.549       .  S
C352        H358   1.109       .  S
C353        H359   1.084       .  S
C353        C354   1.370       .  D
C354       C3336   1.489       .  S
C355        H360   1.087       .  S
C355        C356   1.360       .  D
C356       C4740   1.471       .  S
C361        C362   1.535       .  S
C361        C367   1.523       .  S
C361        C365   1.543       .  S
C361       C4254   1.517       .  S
C362        H369   1.084       .  S
C362        C363   1.370       .  D
C363        C364   1.549       .  S
C363       C4509   1.493       .  S
C364        C368   1.545       .  S
C364        C366   1.546       .  S
C364        H370   1.104       .  S
C365        H371   1.084       .  S
C365        C366   1.373       .  D
C366       C3318   1.493       .  S
C367        H372   1.085       .  S
C367        C368   1.362       .  D
C368       C4113   1.489       .  S
C373        C374   1.537       .  S
C373        C379   1.529       .  S
C373        C377   1.538       .  S
C373       C3825   1.508       .  S
C374        H381   1.086       .  S
C374        C375   1.366       .  D
C375        C376   1.541       .  S
C375       C3300   1.478       .  S
C376        C380   1.540       .  S
C376        C378   1.543       .  S
C376        H382   1.110       .  S
C377        H383   1.086       .  S
C377        C378   1.366       .  D
C378       C3282   1.480       .  S
C379        H384   1.086       .  S
C379        C380   1.363       .  D
C380       C3426   1.475       .  S
C385        C386   1.546       .  S
C385        C391   1.532       .  S
C385        C389   1.539       .  S
C385       C4149   1.515       .  S
C386        H393   1.084       .  S
C386        C387   1.368       .  D
C387        C388   1.537       .  S
C387       C3264   1.477       .  S
C388        C392   1.533       .  S
C388        C390   1.540       .  S
C388        H394   1.111       .  S
C389        H395   1.086       .  S
C389        C390   1.368       .  D
C390       C4077   1.480       .  S
C391        H396   1.087       .  S
C391        C392   1.360       .  D
C392       C3519   1.469       .  S
C397        C398   1.531       .  S
C397        C403   1.527       .  S
C397        C401   1.541       .  S
C397       C3246   1.512       .  S
C398        H405   1.084       .  S
C398        C399   1.365       .  D
C399        C400   1.546       .  S
C399       C3483   1.486       .  S
C400        C404   1.543       .  S
C400        C402   1.549       .  S
C400        H406   1.105       .  S
C401        H407   1.084       .  S
C401        C402   1.374       .  D
C402       C3228   1.492       .  S
C403        H408   1.085       .  S
C403        C404   1.362       .  D
C404       C3210   1.485       .  S
C409        C410   1.536       .  S
C409        C415   1.534       .  S
C409        C413   1.543       .  S
C409       C3192   1.515       .  S
C410        H417   1.086       .  S
C410        C411   1.366       .  D
C411        C412   1.541       .  S
C411       C3177   1.474       .  S
C412        C416   1.537       .  S
C412        C414   1.546       .  S
C412        H418   1.109       .  S
C413        H419   1.084       .  S
C413        C414   1.372       .  D
C414       C4707   1.495       .  S
C415        H420   1.087       .  S
C415        C416   1.361       .  D
C416       C4524   1.478       .  S
O421        C437   1.276       .  A
O421       Zn427   2.041       .  S
C422        O438   1.274       .  A
C422        O435   1.276       .  A
C422       C3303   1.475       .  S
O423        C436   1.278       .  A
O423       Cd430   2.096       .  S
O424        C442   1.275       .  A
O424       Cd433   2.069       .  S
O425        C439   1.276       .  A
O425       Cd429   2.091   1_655  S
O426        C437   1.274       .  A
O426       Cd429   2.060       .  S
Zn427       O438   2.025   1_455  S
Zn427       O440   2.017       .  S
Zn427       O432   1.958       .  S
O428        C439   1.276       .  A
O428       Cd433   2.081       .  S
Cd429       O431   2.073       .  S
Cd429       O432   2.002       .  S
Cd430       O434   2.098       .  S
Cd430       O443   2.102       .  S
Cd430       O432   2.023       .  S
O431        C441   1.275       .  A
O432       Cd433   2.003   1_455  S
Cd433       O435   2.087       .  S
O434        C441   1.278       .  A
C436        O440   1.273       .  A
C436       C3339   1.479       .  S
C437       C3174   1.473       .  S
C439       C3267   1.478       .  S
C441       C3321   1.480       .  S
C442        O443   1.279   1_655  A
C442       C3231   1.479       .  S
C444        C445   1.544       .  S
C444        C450   1.530       .  S
C444        C448   1.539       .  S
C444       C3156   1.515       .  S
C445        H452   1.083       .  S
C445        C446   1.374       .  D
C446        C447   1.545       .  S
C446       C3138   1.491       .  S
C447        C451   1.539       .  S
C447        C449   1.538       .  S
C447        H453   1.109       .  S
C448        H454   1.086       .  S
C448        C449   1.365       .  D
C449       C4167   1.478       .  S
C450        H455   1.087       .  S
C450        C451   1.359       .  D
C451       C4419   1.471       .  S
C456        C457   1.535       .  S
C456        C462   1.531       .  S
C456        C460   1.543       .  S
C456       C3120   1.519       .  S
C457        H464   1.084       .  S
C457        C458   1.371       .  D
C458        C459   1.550       .  S
C458       C4599   1.494       .  S
C459        C463   1.539       .  S
C459        C461   1.543       .  S
C459        H465   1.109       .  S
C460        H466   1.085       .  S
C460        C461   1.369       .  D
C461       C3102   1.481       .  S
C462        H467   1.086       .  S
C462        C463   1.363       .  D
C463       C4200   1.481       .  S
C468        C469   1.543       .  S
C468        C474   1.528       .  S
C468        C472   1.540       .  S
C468       C3084   1.516       .  S
C469        H476   1.083       .  S
C469        C470   1.371       .  D
C470        C471   1.547       .  S
C470       C3066   1.488       .  S
C471        C475   1.534       .  S
C471        C473   1.546       .  S
C471        H477   1.106       .  S
C472        H478   1.085       .  S
C472        C473   1.370       .  D
C473       C3033   1.495       .  S
C474        H479   1.087       .  S
C474        C475   1.357       .  D
C475       C3048   1.471       .  S
C480        C481   1.538       .  S
C480        C486   1.528       .  S
C480        C484   1.543       .  S
C480       C3012   1.516       .  S
C481        H488   1.085       .  S
C481        C482   1.373       .  D
C482        C483   1.549       .  S
C482       C2976   1.494       .  S
C483        C487   1.538       .  S
C483        C485   1.540       .  S
C483        H489   1.108       .  S
C484        H490   1.085       .  S
C484        C485   1.369       .  D
C485       C2997   1.481       .  S
C486        H491   1.087       .  S
C486        C487   1.360       .  D
C487       C2961   1.478       .  S
C492        C493   1.538       .  S
C492        C498   1.529       .  S
C492        C496   1.533       .  S
C492       C2940   1.509       .  S
C493        H500   1.083       .  S
C493        C494   1.372       .  D
C494        C495   1.551       .  S
C494       C2925   1.493       .  S
C495        C499   1.540       .  S
C495        C497   1.547       .  S
C495        H501   1.109       .  S
C496        H502   1.086       .  S
C496        C497   1.365       .  D
C497       C2904   1.478       .  S
C498        H503   1.087       .  S
C498        C499   1.358       .  D
C499       C4635   1.475       .  S
C504        C505   1.538       .  S
C504        C510   1.532       .  S
C504        C508   1.542       .  S
C504       C4473   1.516       .  S
C505        H512   1.082       .  S
C505        C506   1.373       .  D
C506        C507   1.551       .  S
C506       C4398   1.495       .  S
C507        C511   1.535       .  S
C507        C509   1.541       .  S
C507        H513   1.109       .  S
C508        H514   1.086       .  S
C508        C509   1.368       .  D
C509       C2886   1.482       .  S
C510        H515   1.087       .  S
C510        C511   1.359       .  D
C511       C2868   1.476       .  S
O516        C532   1.276       .  A
O516       Zn522   2.033       .  S
C517        O533   1.278       .  A
C517        O530   1.275       .  A
C517       C3105   1.479       .  S
O518        C531   1.277       .  A
O518       Cd525   2.096       .  S
O519        C537   1.275       .  A
O519       Cd528   2.070       .  S
O520        C534   1.276       .  A
O520       Cd524   2.089   1_554  S
O521        C532   1.276       .  A
O521       Cd524   2.088       .  S
Zn522       O533   2.061   1_556  S
Zn522       O535   2.027       .  S
Zn522       O527   1.961   1_556  S
O523        C534   1.276       .  A
O523       Cd528   2.089       .  S
Cd524       O526   2.069       .  S
Cd524       O527   2.007   1_556  S
Cd525       O529   2.101       .  S
Cd525       O538   2.103   1_556  S
Cd525       O527   2.029   1_556  S
O526        C536   1.275       .  A
O527       Cd528   2.002       .  S
Cd528       O530   2.067       .  S
O529        C536   1.278       .  A
C531        O535   1.276       .  A
C531       C2922   1.481       .  S
C532       C2994   1.476       .  S
C534       C2889   1.480       .  S
C536       C3069   1.479       .  S
C537        O538   1.280       .  A
C537       C3141   1.480       .  S
O539        C555   1.273       .  A
O539       Zn545   2.016       .  S
C540        O556   1.275       .  A
C540        O553   1.277       .  A
C540       C3354   1.469       .  S
O541        C554   1.279       .  A
O541       Cd548   2.102       .  S
O542        C560   1.279       .  A
O542       Cd551   2.099       .  S
O543        C557   1.278       .  A
O543       Cd547   2.090       .  S
O544        C555   1.277       .  A
O544       Cd547   2.100       .  S
Zn545       O556   2.007       .  S
Zn545       O558   2.002       .  S
Zn545       O550   1.909       .  S
O546        C557   1.276       .  A
O546       Cd551   2.078       .  S
Cd547       O549   2.065       .  S
Cd547       O550   1.992       .  S
Cd548       O552   2.085       .  S
Cd548       O561   2.086       .  S
Cd548       O550   1.996       .  S
O549        C559   1.276       .  A
O550       Cd551   1.995       .  S
Cd551       O553   2.080       .  S
O552        C559   1.279       .  A
C554        O558   1.274       .  A
C554       C2850   1.477       .  S
C555       C2832   1.478       .  S
C557       C2814   1.478       .  S
C559       C3051   1.465       .  S
C560        O561   1.277       .  A
C560       C2979   1.484       .  S
C562        C563   1.532       .  S
C562        C568   1.531       .  S
C562        C566   1.536       .  S
C562       C3804   1.509       .  S
C563        H570   1.085       .  S
C563        C564   1.371       .  D
C564        C565   1.549       .  S
C564       C2796   1.490       .  S
C565        C569   1.537       .  S
C565        C567   1.546       .  S
C565        H571   1.106       .  S
C566        H572   1.082       .  S
C566        C567   1.367       .  D
C567       C4185   1.485       .  S
C568        H573   1.087       .  S
C568        C569   1.358       .  D
C569       C2778   1.475       .  S
C574        C575   1.541       .  S
C574        C580   1.526       .  S
C574        C578   1.537       .  S
C574       C2760   1.519       .  S
C575        H582   1.085       .  S
C575        C576   1.375       .  D
C576        C577   1.545       .  S
C576       C2745   1.496       .  S
C577        C581   1.543       .  S
C577        C579   1.550       .  S
C577        H583   1.106       .  S
C578        H584   1.082       .  S
C578        C579   1.372       .  D
C579       C2724   1.493       .  S
C580        H585   1.086       .  S
C580        C581   1.358       .  D
C581       C3501   1.480       .  S
C586        C587   1.538       .  S
C586        C592   1.531       .  S
C586        C590   1.532       .  S
C586       C2706   1.510       .  S
C587        H594   1.085       .  S
C587        C588   1.372       .  D
C588        C589   1.546       .  S
C588       C2691   1.486       .  S
C589        C593   1.542       .  S
C589        C591   1.543       .  S
C589        H595   1.107       .  S
C590        H596   1.084       .  S
C590        C591   1.362       .  D
C591       C4725   1.478       .  S
C592        H597   1.086       .  S
C592        C593   1.362       .  D
C593       C2853   1.482       .  S
C598        C599   1.536       .  S
C598        C604   1.527       .  S
C598        C602   1.536       .  S
C598       C4452   1.509       .  S
C599        H606   1.084       .  S
C599        C600   1.371       .  D
C600        C601   1.550       .  S
C600       C2652   1.493       .  S
C601        C605   1.538       .  S
C601        C603   1.540       .  S
C601        H607   1.108       .  S
C602        H608   1.086       .  S
C602        C603   1.366       .  D
C603       C2670   1.474       .  S
C604        H609   1.086       .  S
C604        C605   1.362       .  D
C605       C4761   1.478       .  S
C610        C611   1.534       .  S
C610        C616   1.533       .  S
C610        C614   1.541       .  S
C610       C4365   1.507       .  S
C611        H618   1.086       .  S
C611        C612   1.364       .  D
C612        C613   1.541       .  S
C612       C3462   1.474       .  S
C613        C617   1.537       .  S
C613        C615   1.539       .  S
C613        H619   1.111       .  S
C614        H620   1.084       .  S
C614        C615   1.368       .  D
C615       C2634   1.475       .  S
C616        H621   1.087       .  S
C616        C617   1.360       .  D
C617       C4221   1.470       .  S
C622        C623   1.537       .  S
C622        C628   1.533       .  S
C622        C626   1.545       .  S
C622       C4236   1.516       .  S
C623        H630   1.084       .  S
C623        C624   1.365       .  D
C624        C625   1.545       .  S
C624       C2835   1.483       .  S
C625        C629   1.539       .  S
C625        C627   1.543       .  S
C625        H631   1.111       .  S
C626        H632   1.086       .  S
C626        C627   1.372       .  D
C627       C2619   1.488       .  S
C628        H633   1.087       .  S
C628        C629   1.358       .  D
C629       C2598   1.472       .  S
O634        C650   1.277       .  A
O634       Zn640   2.048       .  S
C635        O651   1.278       .  A
C635        O648   1.272       .  A
C635       C2637   1.470       .  S
O636        C649   1.279       .  A
O636       Cd643   2.105       .  S
O637        C655   1.272       .  A
O637       Cd646   2.054       .  S
O638        C652   1.275       .  A
O638       Cd642   2.081       .  S
O639        C650   1.276       .  A
O639       Cd642   2.095       .  S
Zn640       O651   2.048       .  S
Zn640       O653   2.026       .  S
Zn640       O645   1.954       .  S
O641        C652   1.274       .  A
O641       Cd646   2.075       .  S
Cd642       O644   2.055       .  S
Cd642       O645   2.003       .  S
Cd643       O647   2.097       .  S
Cd643       O656   2.110       .  S
Cd643       O645   2.030       .  S
O644        C654   1.275       .  A
O645       Cd646   1.997       .  S
Cd646       O648   2.051       .  S
O647        C654   1.278       .  A
C649        O653   1.275       .  A
C649       C2742   1.484       .  S
C650       C2616   1.484       .  S
C652       C2673   1.473       .  S
C654       C2688   1.472       .  S
C655        O656   1.278       .  A
C655       C2799   1.479       .  S
O657        C673   1.275       .  A
O657       Zn663   2.001       .  S
C658        O674   1.274       .  A
C658        O671   1.276       .  A
C658       C2907   1.477       .  S
O659        C672   1.277       .  A
O659       Cd666   2.079       .  S
O660        C678   1.273       .  A
O660       Cd669   2.049       .  S
O661        C675   1.276       .  A
O661       Cd665   2.069       .  S
O662        C673   1.276       .  A
O662       Cd665   2.085       .  S
Zn663       O674   2.032       .  S
Zn663       O676   2.004       .  S
Zn663       O668   1.918       .  S
O664        C675   1.277       .  A
O664       Cd669   2.081       .  S
Cd665       O667   2.094       .  S
Cd665       O668   2.004       .  S
Cd666       O670   2.062       .  S
Cd666       O679   2.086       .  S
Cd666       O668   1.992       .  S
O667        C677   1.278       .  A
O668       Cd669   1.976       .  S
Cd669       O671   2.083       .  S
O670        C677   1.274       .  A
C672        O676   1.274       .  A
C672       C2958   1.470       .  S
C673       C2709   1.470       .  S
C675       C2544   1.473       .  S
C677       C2562   1.475       .  S
C678        O679   1.276       .  A
C678       C2580   1.465       .  S
O680        C696   1.277       .  A
O680       Zn686   2.018   1_565  S
C681        O697   1.274       .  A
C681        O694   1.276       .  A
C681       C2475   1.476       .  S
O682        C695   1.278       .  A
O682       Cd689   2.087   1_565  S
O683        C701   1.274       .  A
O683       Cd692   2.058       .  S
O684        C698   1.278       .  A
O684       Cd688   2.088   1_545  S
O685        C696   1.277       .  A
O685       Cd688   2.074       .  S
Zn686       O697   2.017       .  S
Zn686       O699   1.996   1_545  S
Zn686       O691   1.906       .  S
O687        C698   1.276       .  A
O687       Cd692   2.064       .  S
Cd688       O690   2.101       .  S
Cd688       O691   1.991   1_565  S
Cd689       O693   2.062   1_545  S
Cd689       O702   2.088       .  S
Cd689       O691   1.981       .  S
O690        C700   1.279       .  A
O691       Cd692   1.976       .  S
Cd692       O694   2.097       .  S
O693        C700   1.274       .  A
C695        O699   1.272       .  A
C695       C2508   1.470       .  S
C696       C2457   1.468       .  S
C698       C3660   1.472       .  S
C700       C2490   1.477       .  S
C701        O702   1.279       .  A
C701       C2529   1.467       .  S
O703        C719   1.274       .  A
O703       Zn709   2.014   1_556  S
C704        O720   1.276       .  A
C704        O717   1.278       .  A
C704       C2364   1.476       .  S
O705        C718   1.279       .  A
O705       Cd712   2.097       .  S
O706        C724   1.282       .  A
O706       Cd715   2.119       .  S
O707        C721   1.277       .  A
O707       Cd711   2.071       .  S
O708        C719   1.278       .  A
O708       Cd711   2.108       .  S
Zn709       O720   2.016       .  S
Zn709       O722   1.999       .  S
Zn709       O714   1.912   1_554  S
O710        C721   1.280       .  A
O710       Cd715   2.096   1_556  S
Cd711       O713   2.065       .  S
Cd711       O714   1.988       .  S
Cd712       O716   2.102   1_554  S
Cd712       O725   2.069       .  S
Cd712       O714   1.996   1_554  S
O713        C723   1.274       .  A
O714       Cd715   2.004   1_556  S
Cd715       O717   2.093       .  S
O716        C723   1.280       .  A
C718        O722   1.273       .  A
C718       C2436   1.474       .  S
C719       C2400   1.481       .  S
C721       C3015   1.478       .  S
C723       C2421   1.471       .  S
C724        O725   1.275       .  A
C724       C2385   1.485       .  S
C726        C727   1.544       .  S
C726        C732   1.530       .  S
C726        C730   1.533       .  S
C726       C2349   1.514       .  S
C727        H734   1.084       .  S
C727        C728   1.372       .  D
C728        C729   1.543       .  S
C728       C2328   1.484       .  S
C729        C733   1.536       .  S
C729        C731   1.549       .  S
C729        H735   1.108       .  S
C730        H736   1.084       .  S
C730        C731   1.369       .  D
C731       C2565   1.489       .  S
C732        H737   1.087       .  S
C732        C733   1.358       .  D
C733       C2418   1.477       .  S
C738        C739   1.535       .  S
C738        C744   1.526       .  S
C738        C742   1.544       .  S
C738       C4581   1.510       .  S
C739        H746   1.086       .  S
C739        C740   1.363       .  D
C740        C741   1.542       .  S
C740       C2292   1.478       .  S
C741        C745   1.538       .  S
C741        C743   1.547       .  S
C741        H747   1.109       .  S
C742        H748   1.083       .  S
C742        C743   1.375       .  D
C743       C2310   1.494       .  S
C744        H749   1.087       .  S
C744        C745   1.358       .  D
C745       C2583   1.465       .  S
C750        C751   1.539       .  S
C750        C756   1.529       .  S
C750        C754   1.537       .  S
C750       C2274   1.518       .  S
C751        H758   1.083       .  S
C751        C752   1.371       .  D
C752        C753   1.550       .  S
C752       C2382   1.495       .  S
C753        C757   1.539       .  S
C753        C755   1.547       .  S
C753        H759   1.105       .  S
C754        H760   1.085       .  S
C754        C755   1.372       .  D
C755       C2259   1.493       .  S
C756        H761   1.086       .  S
C756        C757   1.359       .  D
C757       C2511   1.478       .  S
C762        C763   1.546       .  S
C762        C768   1.534       .  S
C762        C766   1.534       .  S
C762       C2238   1.516       .  S
C763        H770   1.084       .  S
C763        C764   1.370       .  D
C764        C765   1.542       .  S
C764       C2223   1.485       .  S
C765        C769   1.538       .  S
C765        C767   1.542       .  S
C765        H771   1.109       .  S
C766        H772   1.086       .  S
C766        C767   1.363       .  D
C767       C2472   1.479       .  S
C768        H773   1.086       .  S
C768        C769   1.367       .  D
C769       C4434   1.484       .  S
C774        C775   1.537       .  S
C774        C780   1.533       .  S
C774        C778   1.536       .  S
C774       C2205   1.519       .  S
C775        H782   1.086       .  S
C775        C776   1.367       .  D
C776        C777   1.545       .  S
C776       C2184   1.483       .  S
C777        C781   1.541       .  S
C777        C779   1.554       .  S
C777        H783   1.108       .  S
C778        H784   1.081       .  S
C778        C779   1.372       .  D
C779       C2169   1.498       .  S
C780        H785   1.085       .  S
C780        C781   1.362       .  D
C781       C2148   1.486       .  S
C786        C787   1.537       .  S
C786        C792   1.528       .  S
C786        C790   1.544       .  S
C786       C3933   1.513       .  S
C787        H794   1.086       .  S
C787        C788   1.365       .  D
C788        C789   1.542       .  S
C788       C4383   1.481       .  S
C789        C793   1.538       .  S
C789        C791   1.546       .  S
C789        H795   1.108       .  S
C790        H796   1.083       .  S
C790        C791   1.374       .  D
C791       C2130   1.493       .  S
C792        H797   1.087       .  S
C792        C793   1.359       .  D
C793       C2112   1.473       .  S
O798        C814   1.276       .  A
O798       Zn804   2.042   1_565  S
C799        O815   1.274       .  A
C799        O812   1.277       .  A
C799       C2187   1.479       .  S
O800        C813   1.280       .  A
O800       Cd807   2.114   1_556  S
O801        C819   1.276       .  A
O801       Cd810   2.074       .  S
O802        C816   1.277       .  A
O802       Cd806   2.095       .  S
O803        C814   1.274       .  A
O803       Cd806   2.072   1_566  S
Zn804       O815   2.026       .  S
Zn804       O817   2.014   1_545  S
Zn804       O809   1.955       .  S
O805        C816   1.276       .  A
O805       Cd810   2.083       .  S
Cd806       O808   2.069   1_545  S
Cd806       O809   2.008   1_554  S
Cd807       O811   2.111       .  S
Cd807       O820   2.106   1_565  S
Cd807       O809   2.031   1_564  S
O808        C818   1.275       .  A
O809       Cd810   2.007   1_556  S
Cd810       O812   2.097   1_554  S
O811        C818   1.280       .  A
C813        O817   1.273       .  A
C813       C2313   1.483       .  S
C814       C2331   1.474       .  S
C816       C2220   1.477       .  S
C818       C2256   1.482       .  S
C819        O820   1.279       .  A
C819       C2133   1.481       .  S
O821        C837   1.278       .  A
O821       Zn827   2.021       .  S
C822        O838   1.273       .  A
C822        O835   1.277       .  A
C822       C2040   1.475       .  S
O823        C836   1.280       .  A
O823       Cd830   2.101       .  S
O824        C842   1.275       .  A
O824       Cd833   2.065       .  S
O825        C839   1.277   1_655  A
O825       Cd829   2.087       .  S
O826        C837   1.278       .  A
O826       Cd829   2.083       .  S
Zn827       O838   2.014   1_655  S
Zn827       O840   2.001       .  S
Zn827       O832   1.906       .  S
O828        C839   1.277       .  A
O828       Cd833   2.078       .  S
Cd829       O831   2.099       .  S
Cd829       O832   1.991       .  S
Cd830       O834   2.065       .  S
Cd830       O843   2.098   1_655  S
Cd830       O832   1.982       .  S
O831        C841   1.280       .  A
O832       Cd833   1.973   1_655  S
Cd833       O835   2.092       .  S
O834        C841   1.275       .  A
C836        O840   1.274       .  A
C836       C2076   1.475       .  S
C837       C3789   1.474       .  S
C839       C3195   1.477       .  S
C841       C2058   1.476       .  S
C842        O843   1.281       .  A
C842       C2097   1.472       .  S
O844        C860   1.276       .  A
O844       Zn850   2.021       .  S
C845        O861   1.273       .  A
C845        O858   1.277       .  A
C845       C2004   1.480       .  S
O846        C859   1.277       .  A
O846       Cd853   2.087       .  S
O847        C865   1.275       .  A
O847       Cd856   2.067       .  S
O848        C862   1.280       .  A
O848       Cd852   2.099   1_554  S
O849        C860   1.279       .  A
O849       Cd852   2.097       .  S
Zn850       O861   2.013   1_556  S
Zn850       O863   1.994       .  S
Zn850       O855   1.914   1_556  S
O851        C862   1.277       .  A
O851       Cd856   2.066       .  S
Cd852       O854   2.124       .  S
Cd852       O855   2.008   1_556  S
Cd853       O857   2.059       .  S
Cd853       O866   2.096   1_556  S
Cd853       O855   1.996   1_556  S
O854        C864   1.282       .  A
O855       Cd856   1.986       .  S
Cd856       O858   2.106       .  S
O857        C864   1.274       .  A
C859        O863   1.273       .  A
C859       C2025   1.470       .  S
C860       C1986   1.477       .  S
C862       C3159   1.477       .  S
C864       C2166   1.485       .  S
C865        O866   1.278       .  A
C865       C2115   1.474       .  S
O867        C883   1.277       .  A
O867       Zn873   2.022       .  S
C868        O884   1.274       .  A
C868        O881   1.277       .  A
C868       C3534   1.479       .  S
O869        C882   1.280       .  A
O869       Cd876   2.106       .  S
O870        C888   1.274       .  A
O870       Cd879   2.053       .  S
O871        C885   1.278   1_545  A
O871       Cd875   2.088       .  S
O872        C883   1.279       .  A
O872       Cd875   2.089       .  S
Zn873       O884   2.017   1_545  S
Zn873       O886   2.004       .  S
Zn873       O878   1.910       .  S
O874        C885   1.278       .  A
O874       Cd879   2.078       .  S
Cd875       O877   2.119       .  S
Cd875       O878   2.000       .  S
Cd876       O880   2.062       .  S
Cd876       O889   2.100   1_545  S
Cd876       O878   1.993       .  S
O877        C887   1.282       .  A
O878       Cd879   1.985   1_545  S
Cd879       O881   2.102       .  S
O880        C887   1.274       .  A
C882        O886   1.274       .  A
C882       C3588   1.479       .  S
C883       C1932   1.476       .  S
C885       C2346   1.477       .  S
C887       C1953   1.483       .  S
C888        O889   1.280       .  A
C888       C1968   1.470       .  S
C890        C891   1.537       .  S
C890        C896   1.529       .  S
C890        C894   1.537       .  S
C890       C1917   1.513       .  S
C891        H898   1.086       .  S
C891        C892   1.368       .  D
C892        C893   1.545       .  S
C892       C1899   1.483       .  S
C893        C897   1.540       .  S
C893        C895   1.551       .  S
C893        H899   1.108       .  S
C894        H900   1.082       .  S
C894        C895   1.371       .  D
C895       C1950   1.494       .  S
C896        H901   1.086       .  S
C896        C897   1.360       .  D
C897       C1881   1.480       .  S
C902        C903   1.539       .  S
C902        C908   1.529       .  S
C902        C906   1.538       .  S
C902       C2454   1.510       .  S
C903        H910   1.086       .  S
C903        C904   1.366       .  D
C904        C905   1.542       .  S
C904       C1860   1.479       .  S
C905        C909   1.541       .  S
C905        C907   1.545       .  S
C905        H911   1.110       .  S
C906        H912   1.085       .  S
C906        C907   1.370       .  D
C907       C2043   1.482       .  S
C908        H913   1.087       .  S
C908        C909   1.360       .  D
C909       C2439   1.480       .  S
C914        C915   1.541       .  S
C914        C920   1.535       .  S
C914        C918   1.536       .  S
C914       C4041   1.506       .  S
C915        H922   1.086       .  S
C915        C916   1.367       .  D
C916        C917   1.538       .  S
C916       C1845   1.474       .  S
C917        C921   1.539       .  S
C917        C919   1.540       .  S
C917        H923   1.111       .  S
C918        H924   1.086       .  S
C918        C919   1.363       .  D
C919       C2007   1.476       .  S
C920        H925   1.086       .  S
C920        C921   1.362       .  D
C921       C4005   1.476       .  S
C926        C927   1.538       .  S
C926        C932   1.531       .  S
C926        C930   1.538       .  S
C926       C4563   1.517       .  S
C927        H934   1.083       .  S
C927        C928   1.370       .  D
C928        C929   1.553       .  S
C928       C3969   1.500       .  S
C929        C933   1.542       .  S
C929        C931   1.551       .  S
C929        H935   1.104       .  S
C930        H936   1.085       .  S
C930        C931   1.372       .  D
C931       C1827   1.497       .  S
C932        H937   1.086       .  S
C932        C933   1.362       .  D
C933       C2079   1.483       .  S
C938        C939   1.536       .  S
C938        C944   1.529       .  S
C938        C942   1.548       .  S
C938       C3390   1.514       .  S
C939        H946   1.086       .  S
C939        C940   1.363       .  D
C940        C941   1.539       .  S
C940       C2403   1.482       .  S
C941        C945   1.534       .  S
C941        C943   1.549       .  S
C941        H947   1.107       .  S
C942        H948   1.084       .  S
C942        C943   1.377       .  D
C943       C1809   1.496       .  S
C944        H949   1.087       .  S
C944        C945   1.358       .  D
C945       C1971   1.467       .  S
C950        C951   1.541       .  S
C950        C956   1.529       .  S
C950        C954   1.536       .  S
C950       C1791   1.513       .  S
C951        H958   1.083       .  S
C951        C952   1.368       .  D
C952        C953   1.542       .  S
C952       C1752   1.484       .  S
C953        C957   1.540       .  S
C953        C955   1.545       .  S
C953        H959   1.108       .  S
C954        H960   1.085       .  S
C954        C955   1.370       .  D
C955       C1770   1.487       .  S
C956        H961   1.087       .  S
C956        C957   1.359       .  D
C957       C2022   1.474       .  S
O962        C978   1.276       .  A
O962       Zn968   2.036   1_554  S
C963        O979   1.275       .  A
C963        O976   1.277       .  A
C963       C1896   1.478       .  S
O964        C977   1.276       .  A
O964       Cd971   2.089   1_545  S
O965        C983   1.276       .  A
O965       Cd974   2.071   1_565  S
O966        C980   1.277       .  A
O966       Cd970   2.093   1_465  S
O967        C978   1.275       .  A
O967       Cd970   2.069       .  S
Zn968       O979   2.028   1_655  S
Zn968       O981   2.014       .  S
Zn968       O973   1.955   1_656  S
O969        C980   1.275       .  A
O969       Cd974   2.080   1_564  S
Cd970       O972   2.073   1_545  S
Cd970       O973   2.002   1_655  S
Cd971       O975   2.099   1_556  S
Cd971       O984   2.094   1_655  S
Cd971       O973   2.025   1_666  S
O972        C982   1.276       .  A
O973       Cd974   2.004   1_554  S
Cd974       O976   2.096       .  S
O975        C982   1.277       .  A
C977        O981   1.274       .  A
C977       C1773   1.475       .  S
C978       C1842   1.473       .  S
C980       C1863   1.477       .  S
C982       C1824   1.481       .  S
C983        O984   1.278       .  A
C983       C1806   1.478       .  S
O985       C1001   1.275       .  A
O985       Zn991   2.010       .  S
C986       O1002   1.273       .  A
C986        O999   1.277       .  A
C986       C1716   1.473       .  S
O987       C1000   1.280       .  A
O987       Cd994   2.099       .  S
O988       C1006   1.274       .  A
O988       Cd997   2.057       .  S
O989       C1003   1.277       .  A
O989       Cd993   2.080   1_554  S
O990       C1001   1.277       .  A
O990       Cd993   2.078       .  S
Zn991      O1002   2.016   1_556  S
Zn991      O1004   2.009       .  S
Zn991       O996   1.921       .  S
O992       C1003   1.278       .  A
O992       Cd997   2.085       .  S
Cd993       O995   2.100       .  S
Cd993       O996   1.992       .  S
Cd994       O998   2.077       .  S
Cd994      O1007   2.103   1_556  S
Cd994       O996   1.989       .  S
O995       C1005   1.279       .  A
O996       Cd997   1.975   1_556  S
Cd997       O999   2.090       .  S
O998       C1005   1.276       .  A
C1000      O1004   1.274       .  A
C1000      C1737   1.476       .  S
C1001      C1914   1.469       .  S
C1003      C2241   1.477       .  S
C1005      C3030   1.482       .  S
C1006      O1007   1.280       .  A
C1006      C2871   1.468       .  S
O1008      C1024   1.280       .  A
O1008     Zn1014   2.037       .  S
C1009      O1025   1.276       .  A
C1009      O1022   1.276       .  A
C1009      C3285   1.479       .  S
O1010      C1023   1.279       .  A
O1010     Cd1017   2.097       .  S
O1011      C1029   1.274       .  A
O1011     Cd1020   2.059       .  S
O1012      C1026   1.278       .  A
O1012     Cd1016   2.087       .  S
O1013      C1024   1.279       .  A
O1013     Cd1016   2.094       .  S
Zn1014     O1025   2.032       .  S
Zn1014     O1027   2.011       .  S
Zn1014     O1019   1.917       .  S
O1015      C1026   1.277       .  A
O1015     Cd1020   2.074       .  S
Cd1016     O1018   2.112       .  S
Cd1016     O1019   2.001       .  S
Cd1017     O1021   2.056       .  S
Cd1017     O1030   2.106       .  S
Cd1017     O1019   1.990       .  S
O1018      C1028   1.281       .  A
O1019     Cd1020   1.984       .  S
Cd1020     O1022   2.089       .  S
O1021      C1028   1.273       .  A
C1023      O1027   1.274       .  A
C1023      C3213   1.476       .  S
C1024      C2763   1.480       .  S
C1026      C2943   1.475       .  S
C1028      C1680   1.479       .  S
C1029      O1030   1.280       .  A
C1029      C1698   1.474       .  S
O1031      C1047   1.274       .  A
O1031     Zn1037   2.016       .  S
C1032      O1048   1.279       .  A
C1032      O1045   1.277       .  A
C1032      C3627   1.478       .  S
O1033      C1046   1.278       .  A
O1033     Cd1040   2.091       .  S
O1034      C1052   1.278       .  A
O1034     Cd1043   2.095       .  S
O1035      C1049   1.278       .  A
O1035     Cd1039   2.088       .  S
O1036      C1047   1.278       .  A
O1036     Cd1039   2.100       .  S
Zn1037     O1048   2.039   1_655  S
Zn1037     O1050   2.011   1_655  S
Zn1037     O1042   1.908       .  S
O1038      C1049   1.276       .  A
O1038     Cd1043   2.068   1_655  S
Cd1039     O1041   2.074       .  S
Cd1039     O1042   1.985       .  S
Cd1040     O1044   2.089   1_455  S
Cd1040     O1053   2.058       .  S
Cd1040     O1042   1.986   1_455  S
O1041      C1051   1.277       .  A
O1042     Cd1043   1.988   1_655  S
Cd1043     O1045   2.084       .  S
O1044      C1051   1.278       .  A
C1046      O1050   1.275       .  A
C1046      C1878   1.475       .  S
C1047      C1755   1.475       .  S
C1049      C3249   1.473       .  S
C1051      C1665   1.473       .  S
C1052      O1053   1.274       .  A
C1052      C1644   1.475       .  S
C1054      C1055   1.541       .  S
C1054      C1060   1.531       .  S
C1054      C1058   1.539       .  S
C1054      C1989   1.519       .  S
C1055      H1062   1.085       .  S
C1055      C1056   1.376       .  D
C1056      C1057   1.548       .  S
C1056      C1629   1.494       .  S
C1057      C1061   1.533       .  S
C1057      C1059   1.544       .  S
C1057      H1063   1.105       .  S
C1058      H1064   1.081       .  S
C1058      C1059   1.367       .  D
C1059      C1683   1.492       .  S
C1060      H1065   1.087       .  S
C1060      C1061   1.358       .  D
C1061      C1662   1.470       .  S
C1066      C1067   1.531       .  S
C1066      C1072   1.529       .  S
C1066      C1070   1.541       .  S
C1066      C2817   1.514       .  S
C1067      H1074   1.084       .  S
C1067      C1068   1.368       .  D
C1068      C1069   1.551       .  S
C1068      C1647   1.491       .  S
C1069      C1073   1.541       .  S
C1069      C1071   1.545       .  S
C1069      H1075   1.108       .  S
C1070      H1076   1.085       .  S
C1070      C1071   1.371       .  D
C1071      C1608   1.485       .  S
C1072      H1077   1.085       .  S
C1072      C1073   1.363       .  D
C1073      C1734   1.484       .  S
C1078      C1079   1.542       .  S
C1078      C1084   1.532       .  S
C1078      C1082   1.540       .  S
C1078      C3372   1.514       .  S
C1079      H1086   1.084       .  S
C1079      C1080   1.368       .  D
C1080      C1081   1.541       .  S
C1080      C4614   1.482       .  S
C1081      C1085   1.538       .  S
C1081      C1083   1.542       .  S
C1081      H1087   1.110       .  S
C1082      H1088   1.086       .  S
C1082      C1083   1.370       .  D
C1083      C1590   1.483       .  S
C1084      H1089   1.087       .  S
C1084      C1085   1.358       .  D
C1085      C1701   1.474       .  S
C1090      C1091   1.539       .  S
C1090      C1096   1.528       .  S
C1090      C1094   1.536       .  S
C1090      C4023   1.512       .  S
C1091      H1098   1.084       .  S
C1091      C1092   1.374       .  D
C1092      C1093   1.546       .  S
C1092      C1572   1.490       .  S
C1093      C1097   1.539       .  S
C1093      C1095   1.541       .  S
C1093      H1099   1.107       .  S
C1094      H1100   1.085       .  S
C1094      C1095   1.366       .  D
C1095      C1719   1.476       .  S
C1096      H1101   1.086       .  S
C1096      C1097   1.360       .  D
C1097      C4542   1.480       .  S
C1102      C1103   1.535       .  S
C1102      C1108   1.528       .  S
C1102      C1106   1.534       .  S
C1102      C4128   1.513       .  S
C1103      H1110   1.085       .  S
C1103      C1104   1.371       .  D
C1104      C1105   1.549       .  S
C1104      C1557   1.490       .  S
C1105      C1109   1.543       .  S
C1105      C1107   1.549       .  S
C1105      H1111   1.105       .  S
C1106      H1112   1.081       .  S
C1106      C1107   1.367       .  D
C1107      C2061   1.492       .  S
C1108      H1113   1.086       .  S
C1108      C1109   1.362       .  D
C1109      C4653   1.482       .  S
C1114      C1115   1.540       .  S
C1114      C1120   1.535       .  S
C1114      C1118   1.538       .  S
C1114      C2367   1.514       .  S
C1115      H1122   1.084       .  S
C1115      C1116   1.368       .  D
C1116      C1117   1.539       .  S
C1116      C4491   1.473       .  S
C1117      C1121   1.535       .  S
C1117      C1119   1.540       .  S
C1117      H1123   1.111       .  S
C1118      H1124   1.086       .  S
C1118      C1119   1.367       .  D
C1119      C1536   1.477       .  S
C1120      H1125   1.087       .  S
C1120      C1121   1.359       .  D
C1121      C2094   1.473       .  S
O1126      C1142   1.275       .  A
O1126     Zn1132   2.021       .  S
C1127      O1143   1.276       .  A
C1127      O1140   1.274       .  A
C1127      C1593   1.474       .  S
O1128      C1141   1.278       .  A
O1128     Cd1135   2.098       .  S
O1129      C1147   1.274       .  A
O1129     Cd1138   2.061       .  S
O1130      C1144   1.275       .  A
O1130     Cd1134   2.079   1_556  S
O1131      C1142   1.276       .  A
O1131     Cd1134   2.083       .  S
Zn1132     O1143   2.052   1_454  S
Zn1132     O1145   2.013   1_455  S
Zn1132     O1137   1.952   1_554  S
O1133      C1144   1.276       .  A
O1133     Cd1138   2.085   1_455  S
Cd1134     O1136   2.072       .  S
Cd1134     O1137   2.003   1_554  S
Cd1135     O1139   2.096   1_655  S
Cd1135     O1148   2.097   1_554  S
Cd1135     O1137   2.024   1_654  S
O1136      C1146   1.274       .  A
O1137     Cd1138   1.998   1_455  S
Cd1138     O1140   2.069       .  S
O1139      C1146   1.278       .  A
C1141      O1145   1.274       .  A
C1141      C1554   1.478       .  S
C1142      C1539   1.471       .  S
C1144      C1611   1.475       .  S
C1146      C1575   1.478       .  S
C1147      O1148   1.278       .  A
C1147      C1626   1.477       .  S
O1149      C1165   1.273       .  A
O1149     Zn1155   2.011       .  S
C1150      O1166   1.277       .  A
C1150      O1163   1.278       .  A
C1150      C2277   1.478       .  S
O1151      C1164   1.279       .  A
O1151     Cd1158   2.096       .  S
O1152      C1170   1.281       .  A
O1152     Cd1161   2.110       .  S
O1153      C1167   1.279       .  A
O1153     Cd1157   2.089       .  S
O1154      C1165   1.278       .  A
O1154     Cd1157   2.098       .  S
Zn1155     O1166   2.021       .  S
Zn1155     O1168   1.995       .  S
Zn1155     O1160   1.913       .  S
O1156      C1167   1.279       .  A
O1156     Cd1161   2.087       .  S
Cd1157     O1159   2.073       .  S
Cd1157     O1160   1.985       .  S
Cd1158     O1162   2.098       .  S
Cd1158     O1171   2.067       .  S
Cd1158     O1160   1.994       .  S
O1159      C1169   1.276       .  A
O1160     Cd1161   1.997       .  S
Cd1161     O1163   2.094       .  S
O1162      C1169   1.280       .  A
C1164      O1168   1.272       .  A
C1164      C1518   1.473       .  S
C1165      C1500   1.476       .  S
C1167      C3123   1.480       .  S
C1169      C2781   1.473       .  S
C1170      O1171   1.275       .  A
C1170      C2655   1.481       .  S
O1172      C1188   1.279       .  A
O1172     Zn1178   2.037       .  S
C1173      O1189   1.276       .  A
C1173      O1186   1.277       .  A
C1173      C1467   1.483       .  S
O1174      C1187   1.280       .  A
O1174     Cd1181   2.098       .  S
O1175      C1193   1.275       .  A
O1175     Cd1184   2.063       .  S
O1176      C1190   1.276       .  A
O1176     Cd1180   2.080       .  S
O1177      C1188   1.277       .  A
O1177     Cd1180   2.078       .  S
Zn1178     O1189   2.037       .  S
Zn1178     O1191   2.020       .  S
Zn1178     O1183   1.918       .  S
O1179      C1190   1.278       .  A
O1179     Cd1184   2.086       .  S
Cd1180     O1182   2.095       .  S
Cd1180     O1183   1.998       .  S
Cd1181     O1185   2.073       .  S
Cd1181     O1194   2.102       .  S
Cd1181     O1183   1.994       .  S
O1182      C1192   1.279       .  A
O1183     Cd1184   1.985       .  S
Cd1184     O1186   2.097       .  S
O1185      C1192   1.275       .  A
C1187      O1191   1.275       .  A
C1187      C1485   1.479       .  S
C1188      C2202   1.476       .  S
C1190      C3087   1.477       .  S
C1192      C2727   1.478       .  S
C1193      O1194   1.280       .  A
C1193      C2601   1.473       .  S
O1195      C1211   1.274       .  A
O1195     Zn1201   2.017   1_565  S
C1196      O1212   1.276       .  A
C1196      O1209   1.279       .  A
C1196      C1788   1.474       .  S
O1197      C1210   1.279       .  A
O1197     Cd1204   2.093       .  S
O1198      C1216   1.281       .  A
O1198     Cd1207   2.114       .  S
O1199      C1213   1.275       .  A
O1199     Cd1203   2.060       .  S
O1200      C1211   1.275       .  A
O1200     Cd1203   2.088       .  S
Zn1201     O1212   2.019       .  S
Zn1201     O1214   2.015       .  S
Zn1201     O1206   1.916       .  S
O1202      C1213   1.277       .  A
O1202     Cd1207   2.083   1_565  S
Cd1203     O1205   2.052       .  S
Cd1203     O1206   1.983   1_565  S
Cd1204     O1208   2.103   1_545  S
Cd1204     O1217   2.068       .  S
Cd1204     O1206   1.988       .  S
O1205      C1215   1.273       .  A
O1206     Cd1207   1.998       .  S
Cd1207     O1209   2.089       .  S
O1208      C1215   1.279       .  A
C1210      O1214   1.274       .  A
C1210      C2151   1.477       .  S
C1211      C2295   1.475       .  S
C1213      C3717   1.469       .  S
C1215      C1446   1.471       .  S
C1216      O1217   1.275       .  A
C1216      C1428   1.483       .  S
C1218      C1219   1.540       .  S
C1218      C1224   1.530       .  S
C1218      C1222   1.542       .  S
C1218      C1935   1.515       .  S
C1219      H1226   1.086       .  S
C1219      C1220   1.369       .  D
C1220      C1221   1.541       .  S
C1220      C1410   1.481       .  S
C1221      C1225   1.542       .  S
C1221      C1223   1.544       .  S
C1221      H1227   1.110       .  S
C1222      H1228   1.084       .  S
C1222      C1223   1.368       .  D
C1223      C1464   1.484       .  S
C1224      H1229   1.086       .  S
C1224      C1225   1.360       .  D
C1225      C4311   1.482       .  S
C1230      C1231   1.543       .  S
C1230      C1236   1.534       .  S
C1230      C1234   1.534       .  S
C1230      C2547   1.510       .  S
C1231      H1238   1.084       .  S
C1231      C1232   1.371       .  D
C1232      C1233   1.542       .  S
C1232      C1392   1.478       .  S
C1233      C1237   1.535       .  S
C1233      C1235   1.542       .  S
C1233      H1239   1.111       .  S
C1234      H1240   1.086       .  S
C1234      C1235   1.363       .  D
C1235      C3843   1.482       .  S
C1236      H1241   1.087       .  S
C1236      C1237   1.361       .  D
C1237      C1449   1.473       .  S
C1242      C1243   1.539       .  S
C1242      C1248   1.530       .  S
C1242      C1246   1.538       .  S
C1242      C3447   1.519       .  S
C1243      H1250   1.082       .  S
C1243      C1244   1.370       .  D
C1244      C1245   1.550       .  S
C1244      C1431   1.497       .  S
C1245      C1249   1.542       .  S
C1245      C1247   1.549       .  S
C1245      H1251   1.105       .  S
C1246      H1252   1.085       .  S
C1246      C1247   1.372       .  D
C1247      C1374   1.493       .  S
C1248      H1253   1.086       .  S
C1248      C1249   1.362       .  D
C1249      C1482   1.487       .  S
C1254      C1255   1.533       .  S
C1254      C1260   1.530       .  S
C1254      C1258   1.536       .  S
C1254      C4671   1.512       .  S
C1255      H1262   1.086       .  S
C1255      C1256   1.365       .  D
C1256      C1257   1.543       .  S
C1256      C1359   1.475       .  S
C1257      C1261   1.539       .  S
C1257      C1259   1.549       .  S
C1257      H1263   1.108       .  S
C1258      H1264   1.081       .  S
C1258      C1259   1.372       .  D
C1259      C2493   1.491       .  S
C1260      H1265   1.086       .  S
C1260      C1261   1.361       .  D
C1261      C1521   1.482       .  S
C1266      C1267   1.539       .  S
C1266      C1272   1.527       .  S
C1266      C1270   1.545       .  S
C1266      C3912   1.514       .  S
C1267      H1274   1.084       .  S
C1267      C1268   1.362       .  D
C1268      C1269   1.534       .  S
C1268      C1503   1.472       .  S
C1269      C1273   1.537       .  S
C1269      C1271   1.543       .  S
C1269      H1275   1.107       .  S
C1270      H1276   1.085       .  S
C1270      C1271   1.375       .  D
C1271      C1341   1.491       .  S
C1272      H1277   1.086       .  S
C1272      C1273   1.360       .  D
C1273      C3894   1.472       .  S
C1278      C1279   1.539       .  S
C1278      C1284   1.530       .  S
C1278      C1282   1.535       .  S
C1278      C4347   1.510       .  S
C1279      H1286   1.084       .  S
C1279      C1280   1.366       .  D
C1280      C1281   1.543       .  S
C1280      C4275   1.479       .  S
C1281      C1285   1.539       .  S
C1281      C1283   1.548       .  S
C1281      H1287   1.108       .  S
C1282      H1288   1.085       .  S
C1282      C1283   1.370       .  D
C1283      C1323   1.493       .  S
C1284      H1289   1.087       .  S
C1284      C1285   1.359       .  D
C1285      C2526   1.470       .  S
O1290      C1306   1.275       .  A
O1290     Zn1296   2.036       .  S
C1291      O1307   1.274       .  A
C1291      O1304   1.274       .  A
C1291      C1356   1.469       .  S
O1292      C1305   1.278   1_545  A
O1292     Cd1299   2.098       .  S
O1293      C1311   1.274       .  A
O1293     Cd1302   2.060       .  S
O1294      C1308   1.275       .  A
O1294     Cd1298   2.086       .  S
O1295      C1306   1.273       .  A
O1295     Cd1298   2.063   1_565  S
Zn1296     O1307   2.013       .  S
Zn1296     O1309   2.025       .  S
Zn1296     O1301   1.952   1_565  S
O1297      C1308   1.274       .  A
O1297     Cd1302   2.073       .  S
Cd1298     O1300   2.064       .  S
Cd1298     O1301   2.000       .  S
Cd1299     O1303   2.102       .  S
Cd1299     O1312   2.104       .  S
Cd1299     O1301   2.022       .  S
O1300      C1310   1.274       .  A
O1301     Cd1302   2.001       .  S
Cd1302     O1304   2.078   1_545  S
O1303      C1310   1.279       .  A
C1305      O1309   1.275       .  A
C1305      C1338   1.480       .  S
C1306      C1395   1.469       .  S
C1308      C1413   1.472       .  S
C1310      C1377   1.479       .  S
C1311      O1312   1.279       .  A
C1311      C1320   1.478       .  S
C1313      C1318   1.384       .  A
C1313      C1314   1.407       .  A
C1313      N1319   1.349       .  A
C1314      C1315   1.407       .  A
C1314      H1325   1.082       .  S
C1315      C1324   1.380       .  A
C1315      C1316   1.382       .  A
C1316      C1317   1.403       .  A
C1316      N1322   1.345       .  A
C1317      C1318   1.403       .  A
C1317      H1326   1.082       .  S
C1318      C1321   1.376       .  A
N1319      C1320   1.358       .  A
N1319      H1329   1.045       .  S
C1320      C1321   1.396       .  A
C1321      H1327   1.083       .  S
N1322      C1323   1.358       .  A
N1322      H1330   1.043       .  S
C1323      C1324   1.402       .  A
C1324      H1328   1.081       .  S
C1331      C1336   1.384       .  A
C1331      C1332   1.403       .  A
C1331      N1337   1.344       .  A
C1332      C1333   1.403       .  A
C1332      H1343   1.082       .  S
C1333      C1342   1.376       .  A
C1333      C1334   1.382       .  A
C1334      C1335   1.408       .  A
C1334      N1340   1.348       .  A
C1335      C1336   1.408       .  A
C1335      H1344   1.082       .  S
C1336      C1339   1.384       .  A
N1337      C1338   1.357       .  A
N1337      H1347   1.045       .  S
C1338      C1339   1.398       .  A
C1339      H1345   1.082   1_565  S
N1340      C1341   1.360       .  A
N1340      H1348   1.044       .  S
C1341      C1342   1.398       .  A
C1342      H1346   1.081       .  S
C1349      C1354   1.385       .  A
C1349      C1350   1.405       .  A
C1349      N1355   1.346       .  A
C1350      C1351   1.405       .  A
C1350      H1361   1.082       .  S
C1351      C1360   1.380       .  A
C1351      C1352   1.385       .  A
C1352      C1353   1.401       .  A
C1352      N1358   1.343       .  A
C1353      C1354   1.401       .  A
C1353      H1362   1.082       .  S
C1354      C1357   1.374       .  A
N1355      C1356   1.356       .  A
N1355      H1365   1.045       .  S
C1356      C1357   1.393       .  A
C1357      H1363   1.083       .  S
N1358      C1359   1.353       .  A
N1358      H1366   1.045       .  S
C1359      C1360   1.397       .  A
C1360      H1364   1.082       .  S
C1367      C1372   1.382       .  A
C1367      C1368   1.408       .  A
C1367      N1373   1.345       .  A
C1368      C1369   1.406       .  A
C1368      H1379   1.082       .  S
C1369      C1378   1.384       .  A
C1369      C1370   1.384       .  A
C1370      C1371   1.405       .  A
C1370      N1376   1.343       .  A
C1371      C1372   1.404       .  A
C1371      H1380   1.082       .  S
C1372      C1375   1.381       .  A
N1373      C1374   1.360       .  A
N1373      H1383   1.044       .  S
C1374      C1375   1.399       .  A
C1375      H1381   1.081       .  S
N1376      C1377   1.357       .  A
N1376      H1384   1.045       .  S
C1377      C1378   1.398       .  A
C1378      H1382   1.082       .  S
C1385      C1390   1.384       .  A
C1385      C1386   1.407       .  A
C1385      N1391   1.347       .  A
C1386      C1387   1.406       .  A
C1386      H1397   1.082       .  S
C1387      C1396   1.382       .  A
C1387      C1388   1.385       .  A
C1388      C1389   1.400       .  A
C1388      N1394   1.341       .  A
C1389      C1390   1.400       .  A
C1389      H1398   1.082       .  S
C1390      C1393   1.373       .  A
N1391      C1392   1.358       .  A
N1391      H1401   1.044       .  S
C1392      C1393   1.393       .  A
C1393      H1399   1.082       .  S
N1394      C1395   1.354       .  A
N1394      H1402   1.045       .  S
C1395      C1396   1.396       .  A
C1396      H1400   1.082       .  S
C1403      C1408   1.384       .  A
C1403      C1404   1.407       .  A
C1403      N1409   1.347       .  A
C1404      C1405   1.407       .  A
C1404      H1415   1.082       .  S
C1405      C1414   1.383       .  A
C1405      C1406   1.385       .  A
C1406      C1407   1.402       .  A
C1406      N1412   1.343       .  A
C1407      C1408   1.401       .  A
C1407      H1416   1.082       .  S
C1408      C1411   1.376       .  A
N1409      C1410   1.358       .  A
N1409      H1419   1.045       .  S
C1410      C1411   1.394       .  A
C1411      H1417   1.082       .  S
N1412      C1413   1.355       .  A
N1412      H1420   1.045       .  S
C1413      C1414   1.397       .  A
C1414      H1418   1.082       .  S
C1421      C1426   1.383       .  A
C1421      C1422   1.405       .  A
C1421      N1427   1.342       .  A
C1422      C1423   1.402       .  A
C1422      H1433   1.082       .  S
C1423      C1432   1.381       .  A
C1423      C1424   1.381       .  A
C1424      C1425   1.411       .  A
C1424      N1430   1.347       .  A
C1425      C1426   1.409       .  A
C1425      H1434   1.082       .  S
C1426      C1429   1.389       .  A
N1427      C1428   1.357       .  A
N1427      H1437   1.045       .  S
C1428      C1429   1.400       .  A
C1429      H1435   1.082       .  S
N1430      C1431   1.362       .  A
N1430      H1438   1.044       .  S
C1431      C1432   1.398       .  A
C1432      H1436   1.081       .  S
C1439      C1444   1.385       .  A
C1439      C1440   1.405       .  A
C1439      N1445   1.348       .  A
C1440      C1441   1.406       .  A
C1440      H1451   1.082       .  S
C1441      C1450   1.378       .  A
C1441      C1442   1.385       .  A
C1442      C1443   1.401       .  A
C1442      N1448   1.344       .  A
C1443      C1444   1.401       .  A
C1443      H1452   1.082       .  S
C1444      C1447   1.373       .  A
N1445      C1446   1.356       .  A
N1445      H1455   1.045       .  S
C1446      C1447   1.394       .  A
C1447      H1453   1.083       .  S
N1448      C1449   1.352       .  A
N1448      H1456   1.045       .  S
C1449      C1450   1.396       .  A
C1450      H1454   1.082       .  S
C1457      C1462   1.384       .  A
C1457      C1458   1.409       .  A
C1457      N1463   1.348       .  A
C1458      C1459   1.408       .  A
C1458      H1469   1.082       .  S
C1459      C1468   1.387       .  A
C1459      C1460   1.384       .  A
C1460      C1461   1.406       .  A
C1460      N1466   1.345       .  A
C1461      C1462   1.405       .  A
C1461      H1470   1.082       .  S
C1462      C1465   1.382       .  A
N1463      C1464   1.358       .  A
N1463      H1473   1.044       .  S
C1464      C1465   1.395       .  A
C1465      H1471   1.082       .  S
N1466      C1467   1.357       .  A
N1466      H1474   1.045       .  S
C1467      C1468   1.399       .  A
C1468      H1472   1.082       .  S
C1475      C1480   1.383       .  A
C1475      C1476   1.407       .  A
C1475      N1481   1.348       .  A
C1476      C1477   1.408       .  A
C1476      H1487   1.082       .  S
C1477      C1486   1.382       .  A
C1477      C1478   1.384       .  A
C1478      C1479   1.403       .  A
C1478      N1484   1.345       .  A
C1479      C1480   1.403       .  A
C1479      H1488   1.082       .  S
C1480      C1483   1.375       .  A
N1481      C1482   1.358       .  A
N1481      H1491   1.044       .  S
C1482      C1483   1.398       .  A
C1483      H1489   1.082       .  S
N1484      C1485   1.355       .  A
N1484      H1492   1.045       .  S
C1485      C1486   1.399       .  A
C1486      H1490   1.082       .  S
C1493      C1498   1.384       .  A
C1493      C1494   1.405       .  A
C1493      N1499   1.343       .  A
C1494      C1495   1.403       .  A
C1494      H1505   1.082       .  S
C1495      C1504   1.381       .  A
C1495      C1496   1.385       .  A
C1496      C1497   1.405       .  A
C1496      N1502   1.344       .  A
C1497      C1498   1.404       .  A
C1497      H1506   1.082       .  S
C1498      C1501   1.383       .  A
N1499      C1500   1.357       .  A
N1499      H1509   1.045       .  S
C1500      C1501   1.396       .  A
C1501      H1507   1.082       .  S
N1502      C1503   1.355       .  A
N1502      H1510   1.045       .  S
C1503      C1504   1.393       .  A
C1504      H1508   1.083       .  S
C1511      C1516   1.385       .  A
C1511      C1512   1.401       .  A
C1511      N1517   1.345       .  A
C1512      C1513   1.402       .  A
C1512      H1523   1.082       .  S
C1513      C1522   1.372       .  A
C1513      C1514   1.384       .  A
C1514      C1515   1.404       .  A
C1514      N1520   1.347       .  A
C1515      C1516   1.405       .  A
C1515      H1524   1.082       .  S
C1516      C1519   1.376       .  A
N1517      C1518   1.355       .  A
N1517      H1527   1.045       .  S
C1518      C1519   1.397       .  A
C1519      H1525   1.082       .  S
N1520      C1521   1.356       .  A
N1520      H1528   1.044       .  S
C1521      C1522   1.397       .  A
C1522      H1526   1.082       .  S
C1529      C1534   1.384       .  A
C1529      C1530   1.407       .  A
C1529      N1535   1.346       .  A
C1530      C1531   1.406       .  A
C1530      H1541   1.082       .  S
C1531      C1540   1.382       .  A
C1531      C1532   1.385       .  A
C1532      C1533   1.402       .  A
C1532      N1538   1.342       .  A
C1533      C1534   1.401       .  A
C1533      H1542   1.082       .  S
C1534      C1537   1.376       .  A
N1535      C1536   1.357       .  A
N1535      H1545   1.045       .  S
C1536      C1537   1.392       .  A
C1537      H1543   1.082       .  S
N1538      C1539   1.355       .  A
N1538      H1546   1.045       .  S
C1539      C1540   1.397       .  A
C1540      H1544   1.082       .  S
C1547      C1552   1.384       .  A
C1547      C1548   1.408       .  A
C1547      N1553   1.349       .  A
C1548      C1549   1.408       .  A
C1548      H1559   1.082       .  S
C1549      C1558   1.381       .  A
C1549      C1550   1.383       .  A
C1550      C1551   1.401       .  A
C1550      N1556   1.343       .  A
C1551      C1552   1.401       .  A
C1551      H1560   1.082       .  S
C1552      C1555   1.374       .  A
N1553      C1554   1.358       .  A
N1553      H1563   1.044       .  S
C1554      C1555   1.395       .  A
C1555      H1561   1.082       .  S
N1556      C1557   1.356       .  A
N1556      H1564   1.045       .  S
C1557      C1558   1.401       .  A
C1558      H1562   1.082       .  S
C1565      C1570   1.382       .  A
C1565      C1566   1.406       .  A
C1565      N1571   1.345       .  A
C1566      C1567   1.405       .  A
C1566      H1577   1.082       .  S
C1567      C1576   1.382       .  A
C1567      C1568   1.384       .  A
C1568      C1569   1.405       .  A
C1568      N1574   1.344       .  A
C1569      C1570   1.404       .  A
C1569      H1578   1.082       .  S
C1570      C1573   1.378       .  A
N1571      C1572   1.359       .  A
N1571      H1581   1.044       .  S
C1572      C1573   1.399       .  A
C1573      H1579   1.081       .  S
N1574      C1575   1.357       .  A
N1574      H1582   1.045       .  S
C1575      C1576   1.397       .  A
C1576      H1580   1.082       .  S
C1583      C1588   1.384       .  A
C1583      C1584   1.401       .  A
C1583      N1589   1.342       .  A
C1584      C1585   1.401       .  A
C1584      H1595   1.082       .  S
C1585      C1594   1.375       .  A
C1585      C1586   1.384       .  A
C1586      C1587   1.409       .  A
C1586      N1592   1.350       .  A
C1587      C1588   1.409       .  A
C1587      H1596   1.082       .  S
C1588      C1591   1.384       .  A
N1589      C1590   1.355       .  A
N1589      H1599   1.044       .  S
C1590      C1591   1.400       .  A
C1591      H1597   1.082       .  S
N1592      C1593   1.358       .  A
N1592      H1600   1.044       .  S
C1593      C1594   1.393       .  A
C1594      H1598   1.082       .  S
C1601      C1606   1.384       .  A
C1601      C1602   1.407       .  A
C1601      N1607   1.347       .  A
C1602      C1603   1.407       .  A
C1602      H1613   1.082       .  S
C1603      C1612   1.383       .  A
C1603      C1604   1.384       .  A
C1604      C1605   1.405       .  A
C1604      N1610   1.344       .  A
C1605      C1606   1.404       .  A
C1605      H1614   1.082       .  S
C1606      C1609   1.379       .  A
N1607      C1608   1.358       .  A
N1607      H1617   1.045       .  S
C1608      C1609   1.396       .  A
C1609      H1615   1.082       .  S
N1610      C1611   1.356       .  A
N1610      H1618   1.045       .  S
C1611      C1612   1.397       .  A
C1612      H1616   1.082       .  S
C1619      C1624   1.384       .  A
C1619      C1620   1.407       .  A
C1619      N1625   1.348       .  A
C1620      C1621   1.407       .  A
C1620      H1631   1.082       .  S
C1621      C1630   1.382       .  A
C1621      C1622   1.382       .  A
C1622      C1623   1.403       .  A
C1622      N1628   1.343       .  A
C1623      C1624   1.402       .  A
C1623      H1632   1.082       .  S
C1624      C1627   1.376       .  A
N1625      C1626   1.357       .  A
N1625      H1635   1.045       .  S
C1626      C1627   1.396       .  A
C1627      H1633   1.083       .  S
N1628      C1629   1.359       .  A
N1628      H1636   1.043       .  S
C1629      C1630   1.401       .  A
C1630      H1634   1.082       .  S
C1637      C1642   1.384       .  A
C1637      C1638   1.404       .  A
C1637      N1643   1.347       .  A
C1638      C1639   1.406       .  A
C1638      H1649   1.082       .  S
C1639      C1648   1.376       .  A
C1639      C1640   1.383       .  A
C1640      C1641   1.402       .  A
C1640      N1646   1.345       .  A
C1641      C1642   1.403       .  A
C1641      H1650   1.082       .  S
C1642      C1645   1.374       .  A
N1643      C1644   1.357       .  A
N1643      H1653   1.045       .  S
C1644      C1645   1.396       .  A
C1645      H1651   1.083       .  S
N1646      C1647   1.357       .  A
N1646      H1654   1.044       .  S
C1647      C1648   1.402       .  A
C1648      H1652   1.081       .  S
C1655      C1660   1.386       .  A
C1655      C1656   1.402       .  A
C1655      N1661   1.344       .  A
C1656      C1657   1.402       .  A
C1656      H1667   1.082       .  S
C1657      C1666   1.375       .  A
C1657      C1658   1.385       .  A
C1658      C1659   1.404       .  A
C1658      N1664   1.346       .  A
C1659      C1660   1.404       .  A
C1659      H1668   1.082       .  S
C1660      C1663   1.377       .  A
N1661      C1662   1.352       .  A
N1661      H1671   1.045       .  S
C1662      C1663   1.395       .  A
C1663      H1669   1.082       .  S
N1664      C1665   1.356       .  A
N1664      H1672   1.045       .  S
C1665      C1666   1.395       .  A
C1666      H1670   1.082       .  S
C1673      C1678   1.383       .  A
C1673      C1674   1.405       .  A
C1673      N1679   1.341       .  A
C1674      C1675   1.402       .  A
C1674      H1685   1.082       .  S
C1675      C1684   1.381       .  A
C1675      C1676   1.382       .  A
C1676      C1677   1.408       .  A
C1676      N1682   1.344       .  A
C1677      C1678   1.406       .  A
C1677      H1686   1.082       .  S
C1678      C1681   1.387       .  A
N1679      C1680   1.357       .  A
N1679      H1689   1.045       .  S
C1680      C1681   1.398       .  A
C1681      H1687   1.082       .  S
N1682      C1683   1.360       .  A
N1682      H1690   1.043       .  S
C1683      C1684   1.398       .  A
C1684      H1688   1.081       .  S
C1691      C1696   1.385       .  A
C1691      C1692   1.405       .  A
C1691      N1697   1.348       .  A
C1692      C1693   1.406       .  A
C1692      H1703   1.082       .  S
C1693      C1702   1.378       .  A
C1693      C1694   1.385       .  A
C1694      C1695   1.402       .  A
C1694      N1700   1.345       .  A
C1695      C1696   1.403       .  A
C1695      H1704   1.082       .  S
C1696      C1699   1.375       .  A
N1697      C1698   1.356       .  A
N1697      H1707   1.045       .  S
C1698      C1699   1.395       .  A
C1699      H1705   1.083       .  S
N1700      C1701   1.353       .  A
N1700      H1708   1.045       .  S
C1701      C1702   1.396       .  A
C1702      H1706   1.082       .  S
C1709      C1714   1.384       .  A
C1709      C1710   1.405       .  A
C1709      N1715   1.345       .  A
C1710      C1711   1.404       .  A
C1710      H1721   1.082       .  S
C1711      C1720   1.381       .  A
C1711      C1712   1.385       .  A
C1712      C1713   1.405       .  A
C1712      N1718   1.344       .  A
C1713      C1714   1.404       .  A
C1713      H1722   1.082       .  S
C1714      C1717   1.380       .  A
N1715      C1716   1.356       .  A
N1715      H1725   1.045       .  S
C1716      C1717   1.396       .  A
C1717      H1723   1.082       .  S
N1718      C1719   1.356       .  A
N1718      H1726   1.045       .  S
C1719      C1720   1.394       .  A
C1720      H1724   1.082       .  S
C1727      C1732   1.383       .  A
C1727      C1728   1.403       .  A
C1727      N1733   1.339       .  A
C1728      C1729   1.400       .  A
C1728      H1739   1.082       .  S
C1729      C1738   1.380       .  A
C1729      C1730   1.384       .  A
C1730      C1731   1.408       .  A
C1730      N1736   1.344       .  A
C1731      C1732   1.406       .  A
C1731      H1740   1.082       .  S
C1732      C1735   1.385       .  A
N1733      C1734   1.357       .  A
N1733      H1743   1.044       .  S
C1734      C1735   1.398       .  A
C1735      H1741   1.082       .  S
N1736      C1737   1.358       .  A
N1736      H1744   1.045       .  S
C1737      C1738   1.394       .  A
C1738      H1742   1.082       .  S
C1745      C1750   1.384       .  A
C1745      C1746   1.408       .  A
C1745      N1751   1.345       .  A
C1746      C1747   1.406       .  A
C1746      H1757   1.082       .  S
C1747      C1756   1.387       .  A
C1747      C1748   1.384       .  A
C1748      C1749   1.405       .  A
C1748      N1754   1.342       .  A
C1749      C1750   1.403       .  A
C1749      H1758   1.082       .  S
C1750      C1753   1.382       .  A
N1751      C1752   1.358       .  A
N1751      H1761   1.044       .  S
C1752      C1753   1.395       .  A
C1753      H1759   1.082       .  S
N1754      C1755   1.356       .  A
N1754      H1762   1.045       .  S
C1755      C1756   1.397       .  A
C1756      H1760   1.082       .  S
C1763      C1768   1.383       .  A
C1763      C1764   1.403       .  A
C1763      N1769   1.344       .  A
C1764      C1765   1.403       .  A
C1764      H1775   1.082       .  S
C1765      C1774   1.377       .  A
C1765      C1766   1.384       .  A
C1766      C1767   1.405       .  A
C1766      N1772   1.346       .  A
C1767      C1768   1.405       .  A
C1767      H1776   1.082       .  S
C1768      C1771   1.379       .  A
N1769      C1770   1.356       .  A
N1769      H1779   1.044       .  S
C1770      C1771   1.400       .  A
C1771      H1777   1.082       .  S
N1772      C1773   1.357       .  A
N1772      H1780   1.045       .  S
C1773      C1774   1.396       .  A
C1774      H1778   1.082       .  S
C1781      C1786   1.384       .  A
C1781      C1782   1.403       .  A
C1781      N1787   1.343       .  A
C1782      C1783   1.402       .  A
C1782      H1793   1.083       .  S
C1783      C1792   1.374       .  A
C1783      C1784   1.383       .  A
C1784      C1785   1.405       .  A
C1784      N1790   1.345       .  A
C1785      C1786   1.404       .  A
C1785      H1794   1.082       .  S
C1786      C1789   1.380       .  A
N1787      C1788   1.356       .  A
N1787      H1797   1.045       .  S
C1788      C1789   1.396       .  A
C1789      H1795   1.082       .  S
N1790      C1791   1.358       .  A
N1790      H1798   1.043       .  S
C1791      C1792   1.397       .  A
C1792      H1796   1.083       .  S
C1799      C1804   1.383       .  A
C1799      C1800   1.411       .  A
C1799      N1805   1.349       .  A
C1800      C1801   1.411       .  A
C1800      H1811   1.082       .  S
C1801      C1810   1.387       .  A
C1801      C1802   1.382       .  A
C1802      C1803   1.402       .  A
C1802      N1808   1.341       .  A
C1803      C1804   1.399       .  A
C1803      H1812   1.082       .  S
C1804      C1807   1.375       .  A
N1805      C1806   1.359       .  A
N1805      H1815   1.044       .  S
C1806      C1807   1.394       .  A
C1807      H1813   1.083       .  S
N1808      C1809   1.357       .  A
N1808      H1816   1.043       .  S
C1809      C1810   1.404       .  A
C1810      H1814   1.082       .  S
C1817      C1822   1.383       .  A
C1817      C1818   1.410       .  A
C1817      N1823   1.351       .  A
C1818      C1819   1.411       .  A
C1818      H1829   1.082       .  S
C1819      C1828   1.384       .  A
C1819      C1820   1.382       .  A
C1820      C1821   1.403       .  A
C1820      N1826   1.345       .  A
C1821      C1822   1.402       .  A
C1821      H1830   1.082       .  S
C1822      C1825   1.376       .  A
N1823      C1824   1.360       .  A
N1823      H1833   1.045       .  S
C1824      C1825   1.395       .  A
C1825      H1831   1.082       .  S
N1826      C1827   1.358       .  A
N1826      H1834   1.043       .  S
C1827      C1828   1.404       .  A
C1828      H1832   1.082       .  S
C1835      C1840   1.384       .  A
C1835      C1836   1.407       .  A
C1835      N1841   1.347       .  A
C1836      C1837   1.406       .  A
C1836      H1847   1.082       .  S
C1837      C1846   1.382       .  A
C1837      C1838   1.385       .  A
C1838      C1839   1.401       .  A
C1838      N1844   1.341       .  A
C1839      C1840   1.400       .  A
C1839      H1848   1.082       .  S
C1840      C1843   1.375       .  A
N1841      C1842   1.357       .  A
N1841      H1851   1.045       .  S
C1842      C1843   1.394       .  A
C1843      H1849   1.082       .  S
N1844      C1845   1.353       .  A
N1844      H1852   1.045       .  S
C1845      C1846   1.396       .  A
C1846      H1850   1.082       .  S
C1853      C1858   1.384       .  A
C1853      C1854   1.408       .  A
C1853      N1859   1.347       .  A
C1854      C1855   1.408       .  A
C1854      H1865   1.082       .  S
C1855      C1864   1.385       .  A
C1855      C1856   1.384       .  A
C1856      C1857   1.404       .  A
C1856      N1862   1.343       .  A
C1857      C1858   1.402       .  A
C1857      H1866   1.082       .  S
C1858      C1861   1.378       .  A
N1859      C1860   1.358       .  A
N1859      H1869   1.045       .  S
C1860      C1861   1.393       .  A
C1861      H1867   1.082       .  S
N1862      C1863   1.355       .  A
N1862      H1870   1.045       .  S
C1863      C1864   1.398       .  A
C1864      H1868   1.082       .  S
C1871      C1876   1.385       .  A
C1871      C1872   1.403       .  A
C1871      N1877   1.346       .  A
C1872      C1873   1.403       .  A
C1872      H1883   1.082       .  S
C1873      C1882   1.374       .  A
C1873      C1874   1.384       .  A
C1874      C1875   1.404       .  A
C1874      N1880   1.347       .  A
C1875      C1876   1.405       .  A
C1875      H1884   1.082       .  S
C1876      C1879   1.377       .  A
N1877      C1878   1.356       .  A
N1877      H1887   1.045       .  S
C1878      C1879   1.397       .  A
C1879      H1885   1.082       .  S
N1880      C1881   1.355       .  A
N1880      H1888   1.044       .  S
C1881      C1882   1.397       .  A
C1882      H1886   1.082       .  S
C1889      C1894   1.384       .  A
C1889      C1890   1.408       .  A
C1889      N1895   1.348       .  A
C1890      C1891   1.408       .  A
C1890      H1901   1.082       .  S
C1891      C1900   1.383       .  A
C1891      C1892   1.384       .  A
C1892      C1893   1.404       .  A
C1892      N1898   1.344       .  A
C1893      C1894   1.403       .  A
C1893      H1902   1.082       .  S
C1894      C1897   1.378       .  A
N1895      C1896   1.358       .  A
N1895      H1905   1.045       .  S
C1896      C1897   1.395       .  A
C1897      H1903   1.082       .  S
N1898      C1899   1.355       .  A
N1898      H1906   1.045       .  S
C1899      C1900   1.399       .  A
C1900      H1904   1.082       .  S
C1907      C1912   1.384       .  A
C1907      C1908   1.402       .  A
C1907      N1913   1.342       .  A
C1908      C1909   1.402       .  A
C1908      H1919   1.082       .  S
C1909      C1918   1.375       .  A
C1909      C1910   1.383       .  A
C1910      C1911   1.405       .  A
C1910      N1916   1.344       .  A
C1911      C1912   1.403       .  A
C1911      H1920   1.082       .  S
C1912      C1915   1.379       .  A
N1913      C1914   1.355       .  A
N1913      H1923   1.045       .  S
C1914      C1915   1.395       .  A
C1915      H1921   1.082       .  S
N1916      C1917   1.359       .  A
N1916      H1924   1.043       .  S
C1917      C1918   1.397       .  A
C1918      H1922   1.082       .  S
C1925      C1930   1.384       .  A
C1925      C1926   1.405       .  A
C1925      N1931   1.345       .  A
C1926      C1927   1.405       .  A
C1926      H1937   1.082       .  S
C1927      C1936   1.382       .  A
C1927      C1928   1.383       .  A
C1928      C1929   1.405       .  A
C1928      N1934   1.342       .  A
C1929      C1930   1.403       .  A
C1929      H1938   1.082       .  S
C1930      C1933   1.379       .  A
N1931      C1932   1.356       .  A
N1931      H1941   1.045       .  S
C1932      C1933   1.396       .  A
C1933      H1939   1.082       .  S
N1934      C1935   1.358       .  A
N1934      H1942   1.045       .  S
C1935      C1936   1.400       .  A
C1936      H1940   1.081       .  S
C1943      C1948   1.383       .  A
C1943      C1944   1.404       .  A
C1943      N1949   1.347       .  A
C1944      C1945   1.405       .  A
C1944      H1955   1.082       .  S
C1945      C1954   1.376       .  A
C1945      C1946   1.384       .  A
C1946      C1947   1.407       .  A
C1946      N1952   1.351       .  A
C1947      C1948   1.408       .  A
C1947      H1956   1.082       .  S
C1948      C1951   1.379       .  A
N1949      C1950   1.358       .  A
N1949      H1959   1.044       .  S
C1950      C1951   1.402       .  A
C1951      H1957   1.081       .  S
N1952      C1953   1.358       .  A
N1952      H1960   1.044       .  S
C1953      C1954   1.398       .  A
C1954      H1958   1.083       .  S
C1961      C1966   1.385       .  A
C1961      C1962   1.402       .  A
C1961      N1967   1.346       .  A
C1962      C1963   1.403       .  A
C1962      H1973   1.082       .  S
C1963      C1972   1.374       .  A
C1963      C1964   1.386       .  A
C1964      C1965   1.401       .  A
C1964      N1970   1.344       .  A
C1965      C1966   1.402       .  A
C1965      H1974   1.082       .  S
C1966      C1969   1.374       .  A
N1967      C1968   1.355       .  A
N1967      H1977   1.044       .  S
C1968      C1969   1.395       .  A
C1969      H1975   1.083       .  S
N1970      C1971   1.353       .  A
N1970      H1978   1.045       .  S
C1971      C1972   1.393       .  A
C1972      H1976   1.082       .  S
C1979      C1984   1.383       .  A
C1979      C1980   1.405       .  A
C1979      N1985   1.344       .  A
C1980      C1981   1.404       .  A
C1980      H1991   1.082       .  S
C1981      C1990   1.380       .  A
C1981      C1982   1.382       .  A
C1982      C1983   1.406       .  A
C1982      N1988   1.344       .  A
C1983      C1984   1.404       .  A
C1983      H1992   1.082       .  S
C1984      C1987   1.382       .  A
N1985      C1986   1.357       .  A
N1985      H1995   1.045       .  S
C1986      C1987   1.397       .  A
C1987      H1993   1.082       .  S
N1988      C1989   1.361       .  A
N1988      H1996   1.043       .  S
C1989      C1990   1.399       .  A
C1990      H1994   1.082       .  S
C1997      C2002   1.384       .  A
C1997      C1998   1.408       .  A
C1997      N2003   1.350       .  A
C1998      C1999   1.409       .  A
C1998      H2009   1.082       .  S
C1999      C2008   1.382       .  A
C1999      C2000   1.385       .  A
C2000      C2001   1.402       .  A
C2000      N2006   1.344       .  A
C2001      C2002   1.402       .  A
C2001      H2010   1.082       .  S
C2002      C2005   1.375       .  A
N2003      C2004   1.359       .  A
N2003      H2013   1.045       .  S
C2004      C2005   1.395       .  A
C2005      H2011   1.083       .  S
N2006      C2007   1.353       .  A
N2006      H2014   1.045       .  S
C2007      C2008   1.397       .  A
C2008      H2012   1.082       .  S
C2015      C2020   1.385       .  A
C2015      C2016   1.401       .  A
C2015      N2021   1.344       .  A
C2016      C2017   1.402       .  A
C2016      H2027   1.082       .  S
C2017      C2026   1.373       .  A
C2017      C2018   1.385       .  A
C2018      C2019   1.402       .  A
C2018      N2024   1.345       .  A
C2019      C2020   1.403       .  A
C2019      H2028   1.082       .  S
C2020      C2023   1.373       .  A
N2021      C2022   1.353       .  A
N2021      H2031   1.045       .  S
C2022      C2023   1.396       .  A
C2023      H2029   1.082       .  S
N2024      C2025   1.355       .  A
N2024      H2032   1.045       .  S
C2025      C2026   1.395       .  A
C2026      H2030   1.083       .  S
C2033      C2038   1.384       .  A
C2033      C2034   1.405       .  A
C2033      N2039   1.346       .  A
C2034      C2035   1.405       .  A
C2034      H2045   1.082       .  S
C2035      C2044   1.380       .  A
C2035      C2036   1.384       .  A
C2036      C2037   1.406       .  A
C2036      N2042   1.346       .  A
C2037      C2038   1.406       .  A
C2037      H2046   1.082       .  S
C2038      C2041   1.380       .  A
N2039      C2040   1.355       .  A
N2039      H2049   1.045       .  S
C2040      C2041   1.397       .  A
C2041      H2047   1.083       .  S
N2042      C2043   1.356       .  A
N2042      H2050   1.045       .  S
C2043      C2044   1.397       .  A
C2044      H2048   1.082       .  S
C2051      C2056   1.384       .  A
C2051      C2052   1.404       .  A
C2051      N2057   1.347       .  A
C2052      C2053   1.405       .  A
C2052      H2063   1.082       .  S
C2053      C2062   1.375       .  A
C2053      C2054   1.382       .  A
C2054      C2055   1.404       .  A
C2054      N2060   1.347       .  A
C2055      C2056   1.405       .  A
C2055      H2064   1.082       .  S
C2056      C2059   1.377       .  A
N2057      C2058   1.356       .  A
N2057      H2067   1.045       .  S
C2058      C2059   1.397       .  A
C2059      H2065   1.082       .  S
N2060      C2061   1.358       .  A
N2060      H2068   1.044       .  S
C2061      C2062   1.402       .  A
C2062      H2066   1.081       .  S
C2069      C2074   1.384       .  A
C2069      C2070   1.406       .  A
C2069      N2075   1.343       .  A
C2070      C2071   1.404       .  A
C2070      H2081   1.082       .  S
C2071      C2080   1.383       .  A
C2071      C2072   1.383       .  A
C2072      C2073   1.404       .  A
C2072      N2078   1.341       .  A
C2073      C2074   1.402       .  A
C2073      H2082   1.082       .  S
C2074      C2077   1.381       .  A
N2075      C2076   1.357       .  A
N2075      H2085   1.045       .  S
C2076      C2077   1.395       .  A
C2077      H2083   1.082       .  S
N2078      C2079   1.358       .  A
N2078      H2086   1.044       .  S
C2079      C2080   1.396       .  A
C2080      H2084   1.082       .  S
C2087      C2092   1.385       .  A
C2087      C2088   1.403       .  A
C2087      N2093   1.341       .  A
C2088      C2089   1.401       .  A
C2088      H2099   1.082       .  S
C2089      C2098   1.380       .  A
C2089      C2090   1.384       .  A
C2090      C2091   1.406       .  A
C2090      N2096   1.343       .  A
C2091      C2092   1.404       .  A
C2091      H2100   1.082       .  S
C2092      C2095   1.383       .  A
N2093      C2094   1.355       .  A
N2093      H2103   1.045       .  S
C2094      C2095   1.394       .  A
C2095      H2101   1.082       .  S
N2096      C2097   1.357       .  A
N2096      H2104   1.045       .  S
C2097      C2098   1.394       .  A
C2098      H2102   1.082       .  S
C2105      C2110   1.386       .  A
C2105      C2106   1.403       .  A
C2105      N2111   1.347       .  A
C2106      C2107   1.404       .  A
C2106      H2117   1.082       .  S
C2107      C2116   1.375       .  A
C2107      C2108   1.385       .  A
C2108      C2109   1.403       .  A
C2108      N2114   1.347       .  A
C2109      C2110   1.404       .  A
C2109      H2118   1.082       .  S
C2110      C2113   1.375       .  A
N2111      C2112   1.354       .  A
N2111      H2121   1.045       .  S
C2112      C2113   1.394       .  A
C2113      H2119   1.082       .  S
N2114      C2115   1.356       .  A
N2114      H2122   1.045       .  S
C2115      C2116   1.395       .  A
C2116      H2120   1.082       .  S
C2123      C2128   1.382       .  A
C2123      C2124   1.409       .  A
C2123      N2129   1.347       .  A
C2124      C2125   1.408       .  A
C2124      H2135   1.082       .  S
C2125      C2134   1.386       .  A
C2125      C2126   1.384       .  A
C2126      C2127   1.403       .  A
C2126      N2132   1.343       .  A
C2127      C2128   1.402       .  A
C2127      H2136   1.082       .  S
C2128      C2131   1.377       .  A
N2129      C2130   1.361       .  A
N2129      H2139   1.044       .  S
C2130      C2131   1.398       .  A
C2131      H2137   1.081       .  S
N2132      C2133   1.356       .  A
N2132      H2140   1.045       .  S
C2133      C2134   1.399       .  A
C2134      H2138   1.082       .  S
C2141      C2146   1.383       .  A
C2141      C2142   1.404       .  A
C2141      N2147   1.341       .  A
C2142      C2143   1.401       .  A
C2142      H2153   1.082       .  S
C2143      C2152   1.380       .  A
C2143      C2144   1.384       .  A
C2144      C2145   1.408       .  A
C2144      N2150   1.345       .  A
C2145      C2146   1.406       .  A
C2145      H2154   1.082       .  S
C2146      C2149   1.384       .  A
N2147      C2148   1.358       .  A
N2147      H2157   1.044       .  S
C2148      C2149   1.397       .  A
C2149      H2155   1.082       .  S
N2150      C2151   1.358       .  A
N2150      H2158   1.045       .  S
C2151      C2152   1.395       .  A
C2152      H2156   1.082       .  S
C2159      C2164   1.384       .  A
C2159      C2160   1.408       .  A
C2159      N2165   1.352       .  A
C2160      C2161   1.409       .  A
C2160      H2171   1.082       .  S
C2161      C2170   1.380       .  A
C2161      C2162   1.382       .  A
C2162      C2163   1.404       .  A
C2162      N2168   1.348       .  A
C2163      C2164   1.405       .  A
C2163      H2172   1.082       .  S
C2164      C2167   1.376       .  A
N2165      C2166   1.358       .  A
N2165      H2175   1.044       .  S
C2166      C2167   1.398       .  A
C2167      H2173   1.083       .  S
N2168      C2169   1.358       .  A
N2168      H2176   1.043       .  S
C2169      C2170   1.404       .  A
C2170      H2174   1.081       .  S
C2177      C2182   1.384       .  A
C2177      C2178   1.408       .  A
C2177      N2183   1.347       .  A
C2178      C2179   1.407       .  A
C2178      H2189   1.082       .  S
C2179      C2188   1.384       .  A
C2179      C2180   1.384       .  A
C2180      C2181   1.406       .  A
C2180      N2186   1.345       .  A
C2181      C2182   1.405       .  A
C2181      H2190   1.082       .  S
C2182      C2185   1.381       .  A
N2183      C2184   1.358       .  A
N2183      H2193   1.045       .  S
C2184      C2185   1.395       .  A
C2185      H2191   1.082       .  S
N2186      C2187   1.357       .  A
N2186      H2194   1.045       .  S
C2187      C2188   1.397       .  A
C2188      H2192   1.082       .  S
C2195      C2200   1.384       .  A
C2195      C2196   1.401       .  A
C2195      N2201   1.343       .  A
C2196      C2197   1.401       .  A
C2196      H2207   1.082       .  S
C2197      C2206   1.374       .  A
C2197      C2198   1.383       .  A
C2198      C2199   1.409       .  A
C2198      N2204   1.348       .  A
C2199      C2200   1.408       .  A
C2199      H2208   1.082       .  S
C2200      C2203   1.383       .  A
N2201      C2202   1.354       .  A
N2201      H2211   1.045       .  S
C2202      C2203   1.399       .  A
C2203      H2209   1.082       .  S
N2204      C2205   1.361       .  A
N2204      H2212   1.043       .  S
C2205      C2206   1.396       .  A
C2206      H2210   1.082       .  S
C2213      C2218   1.384       .  A
C2213      C2214   1.401       .  A
C2213      N2219   1.342       .  A
C2214      C2215   1.400       .  A
C2214      H2225   1.082       .  S
C2215      C2224   1.373       .  A
C2215      C2216   1.383       .  A
C2216      C2217   1.411       .  A
C2216      N2222   1.350       .  A
C2217      C2218   1.411       .  A
C2217      H2226   1.082       .  S
C2218      C2221   1.387       .  A
N2219      C2220   1.354       .  A
N2219      H2229   1.045       .  S
C2220      C2221   1.400       .  A
C2221      H2227   1.082       .  S
N2222      C2223   1.360       .  A
N2222      H2230   1.044       .  S
C2223      C2224   1.394       .  A
C2224      H2228   1.082       .  S
C2231      C2236   1.383       .  A
C2231      C2232   1.404       .  A
C2231      N2237   1.346       .  A
C2232      C2233   1.404       .  A
C2232      H2243   1.082       .  S
C2233      C2242   1.378       .  A
C2233      C2234   1.384       .  A
C2234      C2235   1.405       .  A
C2234      N2240   1.346       .  A
C2235      C2236   1.405       .  A
C2235      H2244   1.082       .  S
C2236      C2239   1.377       .  A
N2237      C2238   1.358       .  A
N2237      H2247   1.044       .  S
C2238      C2239   1.399       .  A
C2239      H2245   1.082       .  S
N2240      C2241   1.357       .  A
N2240      H2248   1.045       .  S
C2241      C2242   1.397       .  A
C2242      H2246   1.082       .  S
C2249      C2254   1.384       .  A
C2249      C2250   1.407       .  A
C2249      N2255   1.349       .  A
C2250      C2251   1.407       .  A
C2250      H2261   1.082       .  S
C2251      C2260   1.381       .  A
C2251      C2252   1.383       .  A
C2252      C2253   1.405       .  A
C2252      N2258   1.346       .  A
C2253      C2254   1.405       .  A
C2253      H2262   1.082       .  S
C2254      C2257   1.378       .  A
N2255      C2256   1.358       .  A
N2255      H2265   1.044       .  S
C2256      C2257   1.398       .  A
C2257      H2263   1.082       .  S
N2258      C2259   1.359       .  A
N2258      H2266   1.044       .  S
C2259      C2260   1.401       .  A
C2260      H2264   1.082       .  S
C2267      C2272   1.383       .  A
C2267      C2268   1.402       .  A
C2267      N2273   1.341       .  A
C2268      C2269   1.401       .  A
C2268      H2279   1.082       .  S
C2269      C2278   1.376       .  A
C2269      C2270   1.384       .  A
C2270      C2271   1.409       .  A
C2270      N2276   1.348       .  A
C2271      C2272   1.408       .  A
C2271      H2280   1.082       .  S
C2272      C2275   1.384       .  A
N2273      C2274   1.357       .  A
N2273      H2283   1.045       .  S
C2274      C2275   1.403       .  A
C2275      H2281   1.081       .  S
N2276      C2277   1.359       .  A
N2276      H2284   1.045       .  S
C2277      C2278   1.395       .  A
C2278      H2282   1.082       .  S
C2285      C2290   1.384       .  A
C2285      C2286   1.409       .  A
C2285      N2291   1.346       .  A
C2286      C2287   1.407       .  A
C2286      H2297   1.082       .  S
C2287      C2296   1.386       .  A
C2287      C2288   1.384       .  A
C2288      C2289   1.403       .  A
C2288      N2294   1.341       .  A
C2289      C2290   1.400       .  A
C2289      H2298   1.082       .  S
C2290      C2293   1.379       .  A
N2291      C2292   1.358       .  A
N2291      H2301   1.045       .  S
C2292      C2293   1.392       .  A
C2293      H2299   1.082       .  S
N2294      C2295   1.355       .  A
N2294      H2302   1.045       .  S
C2295      C2296   1.399       .  A
C2296      H2300   1.082       .  S
C2303      C2308   1.382       .  A
C2303      C2304   1.408       .  A
C2303      N2309   1.346       .  A
C2304      C2305   1.407       .  A
C2304      H2315   1.082       .  S
C2305      C2314   1.386       .  A
C2305      C2306   1.383       .  A
C2306      C2307   1.407       .  A
C2306      N2312   1.344       .  A
C2307      C2308   1.405       .  A
C2307      H2316   1.082       .  S
C2308      C2311   1.382       .  A
N2309      C2310   1.360       .  A
N2309      H2319   1.044       .  S
C2310      C2311   1.400       .  A
C2311      H2317   1.081       .  S
N2312      C2313   1.358       .  A
N2312      H2320   1.045       .  S
C2313      C2314   1.398       .  A
C2314      H2318   1.082       .  S
C2321      C2326   1.384       .  A
C2321      C2322   1.404       .  A
C2321      N2327   1.344       .  A
C2322      C2323   1.403       .  A
C2322      H2333   1.082       .  S
C2323      C2332   1.379       .  A
C2323      C2324   1.384       .  A
C2324      C2325   1.407       .  A
C2324      N2330   1.347       .  A
C2325      C2326   1.407       .  A
C2325      H2334   1.082       .  S
C2326      C2329   1.383       .  A
N2327      C2328   1.356       .  A
N2327      H2337   1.045       .  S
C2328      C2329   1.398       .  A
C2329      H2335   1.082       .  S
N2330      C2331   1.356       .  A
N2330      H2338   1.045       .  S
C2331      C2332   1.395       .  A
C2332      H2336   1.082       .  S
C2339      C2344   1.384       .  A
C2339      C2340   1.408       .  A
C2339      N2345   1.346       .  A
C2340      C2341   1.406       .  A
C2340      H2351   1.082       .  S
C2341      C2350   1.385       .  A
C2341      C2342   1.383       .  A
C2342      C2343   1.403       .  A
C2342      N2348   1.340       .  A
C2343      C2344   1.401       .  A
C2343      H2352   1.082       .  S
C2344      C2347   1.379       .  A
N2345      C2346   1.358       .  A
N2345      H2355   1.045   1_565  S
C2346      C2347   1.395       .  A
C2347      H2353   1.082       .  S
N2348      C2349   1.357       .  A
N2348      H2356   1.045       .  S
C2349      C2350   1.400       .  A
C2350      H2354   1.081       .  S
C2357      C2362   1.384       .  A
C2357      C2358   1.400       .  A
C2357      N2363   1.341       .  A
C2358      C2359   1.400       .  A
C2358      H2369   1.082       .  S
C2359      C2368   1.372       .  A
C2359      C2360   1.383       .  A
C2360      C2361   1.408       .  A
C2360      N2366   1.348       .  A
C2361      C2362   1.407       .  A
C2361      H2370   1.082       .  S
C2362      C2365   1.383       .  A
N2363      C2364   1.355       .  A
N2363      H2373   1.045       .  S
C2364      C2365   1.399       .  A
C2365      H2371   1.082       .  S
N2366      C2367   1.360       .  A
N2366      H2374   1.043       .  S
C2367      C2368   1.396       .  A
C2368      H2372   1.083       .  S
C2375      C2380   1.382       .  A
C2375      C2376   1.404       .  A
C2375      N2381   1.346       .  A
C2376      C2377   1.405       .  A
C2376      H2387   1.082       .  S
C2377      C2386   1.378       .  A
C2377      C2378   1.384       .  A
C2378      C2379   1.408       .  A
C2378      N2384   1.350       .  A
C2379      C2380   1.409       .  A
C2379      H2388   1.082       .  S
C2380      C2383   1.382       .  A
N2381      C2382   1.358       .  A
N2381      H2391   1.043       .  S
C2382      C2383   1.403       .  A
C2383      H2389   1.082       .  S
N2384      C2385   1.358       .  A
N2384      H2392   1.044       .  S
C2385      C2386   1.398       .  A
C2386      H2390   1.083       .  S
C2393      C2398   1.384       .  A
C2393      C2394   1.409       .  A
C2393      N2399   1.352       .  A
C2394      C2395   1.411       .  A
C2394      H2405   1.082       .  S
C2395      C2404   1.383       .  A
C2395      C2396   1.385       .  A
C2396      C2397   1.403       .  A
C2396      N2402   1.346       .  A
C2397      C2398   1.403       .  A
C2397      H2406   1.082       .  S
C2398      C2401   1.374       .  A
N2399      C2400   1.359       .  A
N2399      H2409   1.044       .  S
C2400      C2401   1.395       .  A
C2401      H2407   1.083       .  S
N2402      C2403   1.354       .  A
N2402      H2410   1.045       .  S
C2403      C2404   1.398       .  A
C2404      H2408   1.082       .  S
C2411      C2416   1.384       .  A
C2411      C2412   1.403       .  A
C2411      N2417   1.339       .  A
C2412      C2413   1.400       .  A
C2412      H2423   1.082       .  S
C2413      C2422   1.381       .  A
C2413      C2414   1.384       .  A
C2414      C2415   1.408       .  A
C2414      N2420   1.343       .  A
C2415      C2416   1.405       .  A
C2415      H2424   1.082       .  S
C2416      C2419   1.386       .  A
N2417      C2418   1.355       .  A
N2417      H2427   1.045       .  S
C2418      C2419   1.397       .  A
C2419      H2425   1.082       .  S
N2420      C2421   1.357       .  A
N2420      H2428   1.045       .  S
C2421      C2422   1.393       .  A
C2422      H2426   1.082       .  S
C2429      C2434   1.385       .  A
C2429      C2430   1.402       .  A
C2429      N2435   1.346       .  A
C2430      C2431   1.403       .  A
C2430      H2441   1.082       .  S
C2431      C2440   1.373       .  A
C2431      C2432   1.384       .  A
C2432      C2433   1.403       .  A
C2432      N2438   1.347       .  A
C2433      C2434   1.405       .  A
C2433      H2442   1.082       .  S
C2434      C2437   1.376       .  A
N2435      C2436   1.355       .  A
N2435      H2445   1.045       .  S
C2436      C2437   1.397       .  A
C2437      H2443   1.082       .  S
N2438      C2439   1.355       .  A
N2438      H2446   1.044       .  S
C2439      C2440   1.397       .  A
C2440      H2444   1.082       .  S
C2447      C2452   1.384       .  A
C2447      C2448   1.404       .  A
C2447      N2453   1.345       .  A
C2448      C2449   1.403       .  A
C2448      H2459   1.082       .  S
C2449      C2458   1.377       .  A
C2449      C2450   1.384       .  A
C2450      C2451   1.401       .  A
C2450      N2456   1.342       .  A
C2451      C2452   1.401       .  A
C2451      H2460   1.082       .  S
C2452      C2455   1.372       .  A
N2453      C2454   1.358       .  A
N2453      H2463   1.044       .  S
C2454      C2455   1.397       .  A
C2455      H2461   1.083       .  S
N2456      C2457   1.355       .  A
N2456      H2464   1.045       .  S
C2457      C2458   1.395       .  A
C2458      H2462   1.082       .  S
C2465      C2470   1.384       .  A
C2465      C2466   1.409       .  A
C2465      N2471   1.346       .  A
C2466      C2467   1.408       .  A
C2466      H2477   1.082       .  S
C2467      C2476   1.387       .  A
C2467      C2468   1.384       .  A
C2468      C2469   1.403       .  A
C2468      N2474   1.341       .  A
C2469      C2470   1.401       .  A
C2469      H2478   1.082       .  S
C2470      C2473   1.379       .  A
N2471      C2472   1.358       .  A
N2471      H2481   1.045       .  S
C2472      C2473   1.393       .  A
C2473      H2479   1.082       .  S
N2474      C2475   1.355       .  A
N2474      H2482   1.045       .  S
C2475      C2476   1.399       .  A
C2476      H2480   1.082       .  S
C2483      C2488   1.384       .  A
C2483      C2484   1.404       .  A
C2483      N2489   1.347       .  A
C2484      C2485   1.405       .  A
C2484      H2495   1.082       .  S
C2485      C2494   1.376       .  A
C2485      C2486   1.382       .  A
C2486      C2487   1.404       .  A
C2486      N2492   1.346       .  A
C2487      C2488   1.405       .  A
C2487      H2496   1.082       .  S
C2488      C2491   1.376       .  A
N2489      C2490   1.356       .  A
N2489      H2499   1.044       .  S
C2490      C2491   1.397       .  A
C2491      H2497   1.082       .  S
N2492      C2493   1.358       .  A
N2492      H2500   1.043       .  S
C2493      C2494   1.400       .  A
C2494      H2498   1.081       .  S
C2501      C2506   1.384       .  A
C2501      C2502   1.405       .  A
C2501      N2507   1.342       .  A
C2502      C2503   1.403       .  A
C2502      H2513   1.082       .  S
C2503      C2512   1.383       .  A
C2503      C2504   1.384       .  A
C2504      C2505   1.403       .  A
C2504      N2510   1.339       .  A
C2505      C2506   1.400       .  A
C2505      H2514   1.082       .  S
C2506      C2509   1.379       .  A
N2507      C2508   1.357       .  A
N2507      H2517   1.045       .  S
C2508      C2509   1.394       .  A
C2509      H2515   1.082       .  S
N2510      C2511   1.356       .  A
N2510      H2518   1.044       .  S
C2511      C2512   1.395       .  A
C2512      H2516   1.082       .  S
C2519      C2524   1.385       .  A
C2519      C2520   1.402       .  A
C2519      N2525   1.340       .  A
C2520      C2521   1.400       .  A
C2520      H2531   1.082       .  S
C2521      C2530   1.379       .  A
C2521      C2522   1.384       .  A
C2522      C2523   1.405       .  A
C2522      N2528   1.342       .  A
C2523      C2524   1.403       .  A
C2523      H2532   1.082       .  S
C2524      C2527   1.382       .  A
N2525      C2526   1.354       .  A
N2525      H2535   1.045       .  S
C2526      C2527   1.393       .  A
C2527      H2533   1.082       .  S
N2528      C2529   1.356       .  A
N2528      H2536   1.045       .  S
C2529      C2530   1.393       .  A
C2530      H2534   1.082       .  S
C2537      C2542   1.385       .  A
C2537      C2538   1.401       .  A
C2537      N2543   1.345       .  A
C2538      C2539   1.402       .  A
C2538      H2549   1.082       .  S
C2539      C2548   1.372       .  A
C2539      C2540   1.384       .  A
C2540      C2541   1.404       .  A
C2540      N2546   1.346       .  A
C2541      C2542   1.404       .  A
C2541      H2550   1.082       .  S
C2542      C2545   1.376       .  A
N2543      C2544   1.355       .  A
N2543      H2553   1.045       .  S
C2544      C2545   1.396       .  A
C2545      H2551   1.082       .  S
N2546      C2547   1.358       .  A
N2546      H2554   1.044       .  S
C2547      C2548   1.396       .  A
C2548      H2552   1.082       .  S
C2555      C2560   1.384       .  A
C2555      C2556   1.401       .  A
C2555      N2561   1.339       .  A
C2556      C2557   1.399       .  A
C2556      H2567   1.082       .  S
C2557      C2566   1.376       .  A
C2557      C2558   1.382       .  A
C2558      C2559   1.409       .  A
C2558      N2564   1.345       .  A
C2559      C2560   1.407       .  A
C2559      H2568   1.082       .  S
C2560      C2563   1.386       .  A
N2561      C2562   1.355       .  A
N2561      H2571   1.045       .  S
C2562      C2563   1.398       .  A
C2563      H2569   1.082       .  S
N2564      C2565   1.361       .  A
N2564      H2572   1.044       .  S
C2565      C2566   1.396       .  A
C2566      H2570   1.081       .  S
C2573      C2578   1.385       .  A
C2573      C2574   1.400       .  A
C2573      N2579   1.337       .  A
C2574      C2575   1.397       .  A
C2574      H2585   1.082       .  S
C2575      C2584   1.377       .  A
C2575      C2576   1.385       .  A
C2576      C2577   1.405       .  A
C2576      N2582   1.340       .  A
C2577      C2578   1.403       .  A
C2577      H2586   1.082       .  S
C2578      C2581   1.383       .  A
N2579      C2580   1.353       .  A
N2579      H2589   1.045       .  S
C2580      C2581   1.396       .  A
C2581      H2587   1.082       .  S
N2582      C2583   1.355       .  A
N2582      H2590   1.045       .  S
C2583      C2584   1.390       .  A
C2584      H2588   1.083       .  S
C2591      C2596   1.384       .  A
C2591      C2592   1.408       .  A
C2591      N2597   1.344       .  A
C2592      C2593   1.406       .  A
C2592      H2603   1.082       .  S
C2593      C2602   1.386       .  A
C2593      C2594   1.384       .  A
C2594      C2595   1.402       .  A
C2594      N2600   1.339       .  A
C2595      C2596   1.399       .  A
C2595      H2604   1.082       .  S
C2596      C2599   1.378       .  A
N2597      C2598   1.358       .  A
N2597      H2607   1.045       .  S
C2598      C2599   1.390       .  A
C2599      H2605   1.082       .  S
N2600      C2601   1.354       .  A
N2600      H2608   1.045       .  S
C2601      C2602   1.398       .  A
C2602      H2606   1.082       .  S
C2609      C2614   1.384       .  A
C2609      C2610   1.410       .  A
C2609      N2615   1.350       .  A
C2610      C2611   1.409       .  A
C2610      H2621   1.082       .  S
C2611      C2620   1.386       .  A
C2611      C2612   1.384       .  A
C2612      C2613   1.407       .  A
C2612      N2618   1.346       .  A
C2613      C2614   1.406       .  A
C2613      H2622   1.082       .  S
C2614      C2617   1.382       .  A
N2615      C2616   1.359       .  A
N2615      H2625   1.045       .  S
C2616      C2617   1.397       .  A
C2617      H2623   1.082       .  S
N2618      C2619   1.357       .  A
N2618      H2626   1.045       .  S
C2619      C2620   1.399       .  A
C2620      H2624   1.082       .  S
C2627      C2632   1.385       .  A
C2627      C2628   1.404       .  A
C2627      N2633   1.344       .  A
C2628      C2629   1.403       .  A
C2628      H2639   1.083       .  S
C2629      C2638   1.377       .  A
C2629      C2630   1.385       .  A
C2630      C2631   1.404       .  A
C2630      N2636   1.345       .  A
C2631      C2632   1.403       .  A
C2631      H2640   1.082       .  S
C2632      C2635   1.379       .  A
N2633      C2634   1.355       .  A
N2633      H2643   1.045       .  S
C2634      C2635   1.394       .  A
C2635      H2641   1.082       .  S
N2636      C2637   1.354       .  A
N2636      H2644   1.045       .  S
C2637      C2638   1.396       .  A
C2638      H2642   1.083       .  S
C2645      C2650   1.382       .  A
C2645      C2646   1.405       .  A
C2645      N2651   1.346       .  A
C2646      C2647   1.405       .  A
C2646      H2657   1.082       .  S
C2647      C2656   1.378       .  A
C2647      C2648   1.384       .  A
C2648      C2649   1.406       .  A
C2648      N2654   1.348       .  A
C2649      C2650   1.406       .  A
C2649      H2658   1.082       .  S
C2650      C2653   1.378       .  A
N2651      C2652   1.358       .  A
N2651      H2661   1.043       .  S
C2652      C2653   1.401       .  A
C2653      H2659   1.081       .  S
N2654      C2655   1.357       .  A
N2654      H2662   1.044       .  S
C2655      C2656   1.398       .  A
C2656      H2660   1.082       .  S
C2663      C2668   1.385       .  A
C2663      C2664   1.405       .  A
C2663      N2669   1.345       .  A
C2664      C2665   1.404       .  A
C2664      H2675   1.082       .  S
C2665      C2674   1.380       .  A
C2665      C2666   1.385       .  A
C2666      C2667   1.404       .  A
C2666      N2672   1.344       .  A
C2667      C2668   1.402       .  A
C2667      H2676   1.082       .  S
C2668      C2671   1.378       .  A
N2669      C2670   1.355       .  A
N2669      H2679   1.045       .  S
C2670      C2671   1.393       .  A
C2671      H2677   1.083       .  S
N2672      C2673   1.356       .  A
N2672      H2680   1.045       .  S
C2673      C2674   1.396       .  A
C2674      H2678   1.082       .  S
C2681      C2686   1.384       .  A
C2681      C2682   1.408       .  A
C2681      N2687   1.348       .  A
C2682      C2683   1.408       .  A
C2682      H2693   1.082       .  S
C2683      C2692   1.381       .  A
C2683      C2684   1.383       .  A
C2684      C2685   1.399       .  A
C2684      N2690   1.340       .  A
C2685      C2686   1.398       .  A
C2685      H2694   1.083       .  S
C2686      C2689   1.371       .  A
N2687      C2688   1.358       .  A
N2687      H2697   1.045       .  S
C2688      C2689   1.393       .  A
C2689      H2695   1.083       .  S
N2690      C2691   1.356       .  A
N2690      H2698   1.043       .  S
C2691      C2692   1.401       .  A
C2692      H2696   1.082       .  S
C2699      C2704   1.384       .  A
C2699      C2700   1.397       .  A
C2699      N2705   1.339       .  A
C2700      C2701   1.396       .  A
C2700      H2711   1.082       .  S
C2701      C2710   1.368       .  A
C2701      C2702   1.384       .  A
C2702      C2703   1.407       .  A
C2702      N2708   1.348       .  A
C2703      C2704   1.408       .  A
C2703      H2712   1.082       .  S
C2704      C2707   1.380       .  A
N2705      C2706   1.353       .  A
N2705      H2715   1.045       .  S
C2706      C2707   1.403       .  A
C2707      H2713   1.081       .  S
N2708      C2709   1.358       .  A
N2708      H2716   1.045       .  S
C2709      C2710   1.391       .  A
C2710      H2714   1.083       .  S
C2717      C2722   1.382       .  A
C2717      C2718   1.406       .  A
C2717      N2723   1.344       .  A
C2718      C2719   1.404       .  A
C2718      H2729   1.082       .  S
C2719      C2728   1.383       .  A
C2719      C2720   1.384       .  A
C2720      C2721   1.406       .  A
C2720      N2726   1.344       .  A
C2721      C2722   1.404       .  A
C2721      H2730   1.082       .  S
C2722      C2725   1.381       .  A
N2723      C2724   1.360       .  A
N2723      H2733   1.043       .  S
C2724      C2725   1.399       .  A
C2725      H2731   1.081       .  S
N2726      C2727   1.357       .  A
N2726      H2734   1.045       .  S
C2727      C2728   1.397       .  A
C2728      H2732   1.082       .  S
C2735      C2740   1.384       .  A
C2735      C2736   1.407       .  A
C2735      N2741   1.349       .  A
C2736      C2737   1.407       .  A
C2736      H2747   1.082       .  S
C2737      C2746   1.381       .  A
C2737      C2738   1.382       .  A
C2738      C2739   1.408       .  A
C2738      N2744   1.348       .  A
C2739      C2740   1.407       .  A
C2739      H2748   1.082       .  S
C2740      C2743   1.381       .  A
N2741      C2742   1.357       .  A
N2741      H2751   1.045       .  S
C2742      C2743   1.399       .  A
C2743      H2749   1.082       .  S
N2744      C2745   1.360       .  A
N2744      H2752   1.044       .  S
C2745      C2746   1.400       .  A
C2746      H2750   1.082       .  S
C2753      C2758   1.383       .  A
C2753      C2754   1.403       .  A
C2753      N2759   1.341       .  A
C2754      C2755   1.401       .  A
C2754      H2765   1.082       .  S
C2755      C2764   1.377       .  A
C2755      C2756   1.383       .  A
C2756      C2757   1.410       .  A
C2756      N2762   1.349       .  A
C2757      C2758   1.410       .  A
C2757      H2766   1.082       .  S
C2758      C2761   1.385       .  A
N2759      C2760   1.357       .  A
N2759      H2769   1.045       .  S
C2760      C2761   1.404       .  A
C2761      H2767   1.081       .  S
N2762      C2763   1.360       .  A
N2762      H2770   1.045       .  S
C2763      C2764   1.395       .  A
C2764      H2768   1.082       .  S
C2771      C2776   1.385       .  A
C2771      C2772   1.404       .  A
C2771      N2777   1.341       .  A
C2772      C2773   1.402       .  A
C2772      H2783   1.082       .  S
C2773      C2782   1.382       .  A
C2773      C2774   1.384       .  A
C2774      C2775   1.406       .  A
C2774      N2780   1.343       .  A
C2775      C2776   1.404       .  A
C2775      H2784   1.082       .  S
C2776      C2779   1.383       .  A
N2777      C2778   1.355       .  A
N2777      H2787   1.045       .  S
C2778      C2779   1.394       .  A
C2779      H2785   1.082       .  S
N2780      C2781   1.357       .  A
N2780      H2788   1.045       .  S
C2781      C2782   1.395       .  A
C2782      H2786   1.082       .  S
C2789      C2794   1.383       .  A
C2789      C2790   1.402       .  A
C2789      N2795   1.344       .  A
C2790      C2791   1.403       .  A
C2790      H2801   1.082       .  S
C2791      C2800   1.374       .  A
C2791      C2792   1.384       .  A
C2792      C2793   1.406       .  A
C2792      N2798   1.349       .  A
C2793      C2794   1.407       .  A
C2793      H2802   1.082       .  S
C2794      C2797   1.378       .  A
N2795      C2796   1.358       .  A
N2795      H2805   1.043       .  S
C2796      C2797   1.401       .  A
C2797      H2803   1.081       .  S
N2798      C2799   1.358       .  A
N2798      H2806   1.044       .  S
C2799      C2800   1.396       .  A
C2800      H2804   1.083       .  S
C2807      C2812   1.384       .  A
C2807      C2808   1.406       .  A
C2807      N2813   1.347       .  A
C2808      C2809   1.406       .  A
C2808      H2819   1.082       .  S
C2809      C2818   1.378       .  A
C2809      C2810   1.383       .  A
C2810      C2811   1.404       .  A
C2810      N2816   1.345       .  A
C2811      C2812   1.404       .  A
C2811      H2820   1.082       .  S
C2812      C2815   1.378       .  A
N2813      C2814   1.357       .  A
N2813      H2823   1.045       .  S
C2814      C2815   1.396       .  A
C2815      H2821   1.082       .  S
N2816      C2817   1.358       .  A
N2816      H2824   1.044       .  S
C2817      C2818   1.401       .  A
C2818      H2822   1.082       .  S
C2825      C2830   1.384       .  A
C2825      C2826   1.407       .  A
C2825      N2831   1.349       .  A
C2826      C2827   1.407       .  A
C2826      H2837   1.082       .  S
C2827      C2836   1.381       .  A
C2827      C2828   1.384       .  A
C2828      C2829   1.404       .  A
C2828      N2834   1.346       .  A
C2829      C2830   1.404       .  A
C2829      H2838   1.082       .  S
C2830      C2833   1.378       .  A
N2831      C2832   1.357       .  A
N2831      H2841   1.045       .  S
C2832      C2833   1.396       .  A
C2833      H2839   1.083       .  S
N2834      C2835   1.355       .  A
N2834      H2842   1.045       .  S
C2835      C2836   1.399       .  A
C2836      H2840   1.082       .  S
C2843      C2848   1.385       .  A
C2843      C2844   1.404       .  A
C2843      N2849   1.348       .  A
C2844      C2845   1.405       .  A
C2844      H2855   1.082       .  S
C2845      C2854   1.375       .  A
C2845      C2846   1.385       .  A
C2846      C2847   1.403       .  A
C2846      N2852   1.347       .  A
C2847      C2848   1.405       .  A
C2847      H2856   1.082       .  S
C2848      C2851   1.376       .  A
N2849      C2850   1.356       .  A
N2849      H2859   1.045       .  S
C2850      C2851   1.396       .  A
C2851      H2857   1.082       .  S
N2852      C2853   1.355       .  A
N2852      H2860   1.044       .  S
C2853      C2854   1.398       .  A
C2854      H2858   1.082       .  S
C2861      C2866   1.384       .  A
C2861      C2862   1.404       .  A
C2861      N2867   1.341       .  A
C2862      C2863   1.401       .  A
C2862      H2873   1.082       .  S
C2863      C2872   1.381       .  A
C2863      C2864   1.385       .  A
C2864      C2865   1.405       .  A
C2864      N2870   1.342       .  A
C2865      C2866   1.403       .  A
C2865      H2874   1.082       .  S
C2866      C2869   1.382       .  A
N2867      C2868   1.356       .  A
N2867      H2877   1.045       .  S
C2868      C2869   1.394       .  A
C2869      H2875   1.082       .  S
N2870      C2871   1.356       .  A
N2870      H2878   1.045       .  S
C2871      C2872   1.393       .  A
C2872      H2876   1.082       .  S
C2879      C2884   1.384       .  A
C2879      C2880   1.408       .  A
C2879      N2885   1.348       .  A
C2880      C2881   1.407       .  A
C2880      H2891   1.082       .  S
C2881      C2890   1.383       .  A
C2881      C2882   1.384       .  A
C2882      C2883   1.405       .  A
C2882      N2888   1.346       .  A
C2883      C2884   1.404       .  A
C2883      H2892   1.082       .  S
C2884      C2887   1.379       .  A
N2885      C2886   1.357       .  A
N2885      H2895   1.045       .  S
C2886      C2887   1.395       .  A
C2887      H2893   1.083       .  S
N2888      C2889   1.357       .  A
N2888      H2896   1.045       .  S
C2889      C2890   1.398       .  A
C2890      H2894   1.082       .  S
C2897      C2902   1.384       .  A
C2897      C2898   1.407       .  A
C2897      N2903   1.346       .  A
C2898      C2899   1.406       .  A
C2898      H2909   1.082       .  S
C2899      C2908   1.383       .  A
C2899      C2900   1.384       .  A
C2900      C2901   1.405       .  A
C2900      N2906   1.344       .  A
C2901      C2902   1.403       .  A
C2901      H2910   1.082       .  S
C2902      C2905   1.381       .  A
N2903      C2904   1.357       .  A
N2903      H2913   1.045       .  S
C2904      C2905   1.393       .  A
C2905      H2911   1.082       .  S
N2906      C2907   1.356       .  A
N2906      H2914   1.045       .  S
C2907      C2908   1.398       .  A
C2908      H2912   1.082       .  S
C2915      C2920   1.384       .  A
C2915      C2916   1.407       .  A
C2915      N2921   1.348       .  A
C2916      C2917   1.407       .  A
C2916      H2927   1.082       .  S
C2917      C2926   1.379       .  A
C2917      C2918   1.382       .  A
C2918      C2919   1.404       .  A
C2918      N2924   1.346       .  A
C2919      C2920   1.404       .  A
C2919      H2928   1.082       .  S
C2920      C2923   1.378       .  A
N2921      C2922   1.358       .  A
N2921      H2931   1.045       .  S
C2922      C2923   1.397       .  A
C2923      H2929   1.082       .  S
N2924      C2925   1.358       .  A
N2924      H2932   1.043       .  S
C2925      C2926   1.402       .  A
C2926      H2930   1.081       .  S
C2933      C2938   1.383       .  A
C2933      C2934   1.404       .  A
C2933      N2939   1.341       .  A
C2934      C2935   1.403       .  A
C2934      H2945   1.082       .  S
C2935      C2944   1.380       .  A
C2935      C2936   1.384       .  A
C2936      C2937   1.404       .  A
C2936      N2942   1.343       .  A
C2937      C2938   1.403       .  A
C2937      H2946   1.082       .  S
C2938      C2941   1.379       .  A
N2939      C2940   1.357       .  A
N2939      H2949   1.045       .  S
C2940      C2941   1.399       .  A
C2941      H2947   1.081       .  S
N2942      C2943   1.356       .  A
N2942      H2950   1.045       .  S
C2943      C2944   1.397       .  A
C2944      H2948   1.082       .  S
C2951      C2956   1.385       .  A
C2951      C2952   1.401       .  A
C2951      N2957   1.344       .  A
C2952      C2953   1.401       .  A
C2952      H2963   1.082       .  S
C2953      C2962   1.372       .  A
C2953      C2954   1.384       .  A
C2954      C2955   1.403       .  A
C2954      N2960   1.346       .  A
C2955      C2956   1.404       .  A
C2955      H2964   1.082       .  S
C2956      C2959   1.376       .  A
N2957      C2958   1.354       .  A
N2957      H2967   1.045       .  S
C2958      C2959   1.396       .  A
C2959      H2965   1.082       .  S
N2960      C2961   1.355       .  A
N2960      H2968   1.044       .  S
C2961      C2962   1.396       .  A
C2962      H2966   1.082       .  S
C2969      C2974   1.382       .  A
C2969      C2970   1.408       .  A
C2969      N2975   1.347       .  A
C2970      C2971   1.407       .  A
C2970      H2981   1.082       .  S
C2971      C2980   1.384       .  A
C2971      C2972   1.384       .  A
C2972      C2973   1.406       .  A
C2972      N2978   1.346       .  A
C2973      C2974   1.405       .  A
C2973      H2982   1.082       .  S
C2974      C2977   1.380       .  A
N2975      C2976   1.361       .  A
N2975      H2985   1.044       .  S
C2976      C2977   1.399       .  A
C2977      H2983   1.081       .  S
N2978      C2979   1.358       .  A
N2978      H2986   1.045       .  S
C2979      C2980   1.399       .  A
C2980      H2984   1.082       .  S
C2987      C2992   1.384       .  A
C2987      C2988   1.407       .  A
C2987      N2993   1.348       .  A
C2988      C2989   1.407       .  A
C2988      H2999   1.082       .  S
C2989      C2998   1.382       .  A
C2989      C2990   1.384       .  A
C2990      C2991   1.404       .  A
C2990      N2996   1.344       .  A
C2991      C2992   1.403       .  A
C2991      H3000   1.082       .  S
C2992      C2995   1.378       .  A
N2993      C2994   1.357       .  A
N2993      H3003   1.045       .  S
C2994      C2995   1.395       .  A
C2995      H3001   1.082       .  S
N2996      C2997   1.355       .  A
N2996      H3004   1.045       .  S
C2997      C2998   1.397       .  A
C2998      H3002   1.082       .  S
C3005      C3010   1.382       .  A
C3005      C3006   1.405       .  A
C3005      N3011   1.344       .  A
C3006      C3007   1.404       .  A
C3006      H3017   1.082       .  S
C3007      C3016   1.379       .  A
C3007      C3008   1.384       .  A
C3008      C3009   1.405       .  A
C3008      N3014   1.346       .  A
C3009      C3010   1.405       .  A
C3009      H3018   1.082       .  S
C3010      C3013   1.380       .  A
N3011      C3012   1.358       .  A
N3011      H3021   1.045       .  S
C3012      C3013   1.401       .  A
C3013      H3019   1.081       .  S
N3014      C3015   1.357       .  A
N3014      H3022   1.045       .  S
C3015      C3016   1.397       .  A
C3016      H3020   1.082       .  S
C3023      C3028   1.384       .  A
C3023      C3024   1.404       .  A
C3023      N3029   1.343       .  A
C3024      C3025   1.403       .  A
C3024      H3035   1.082       .  S
C3025      C3034   1.379       .  A
C3025      C3026   1.382       .  A
C3026      C3027   1.410       .  A
C3026      N3032   1.348       .  A
C3027      C3028   1.409       .  A
C3027      H3036   1.082       .  S
C3028      C3031   1.387       .  A
N3029      C3030   1.357       .  A
N3029      H3039   1.045       .  S
C3030      C3031   1.400       .  A
C3031      H3037   1.082       .  S
N3032      C3033   1.362       .  A
N3032      H3040   1.044       .  S
C3033      C3034   1.398       .  A
C3034      H3038   1.081       .  S
C3041      C3046   1.385       .  A
C3041      C3042   1.403       .  A
C3041      N3047   1.339       .  A
C3042      C3043   1.400       .  A
C3042      H3053   1.082       .  S
C3043      C3052   1.380       .  A
C3043      C3044   1.384       .  A
C3044      C3045   1.404       .  A
C3044      N3050   1.341       .  A
C3045      C3046   1.402       .  A
C3045      H3054   1.082       .  S
C3046      C3049   1.381       .  A
N3047      C3048   1.355       .  A
N3047      H3057   1.045       .  S
C3048      C3049   1.393       .  A
C3049      H3055   1.082       .  S
N3050      C3051   1.355       .  A
N3050      H3058   1.045       .  S
C3051      C3052   1.394       .  A
C3052      H3056   1.082       .  S
C3059      C3064   1.382       .  A
C3059      C3060   1.411       .  A
C3059      N3065   1.349       .  A
C3060      C3061   1.410       .  A
C3060      H3071   1.082       .  S
C3061      C3070   1.388       .  A
C3061      C3062   1.384       .  A
C3062      C3063   1.400       .  A
C3062      N3068   1.340       .  A
C3063      C3064   1.398       .  A
C3063      H3072   1.082       .  S
C3064      C3067   1.374       .  A
N3065      C3066   1.361       .  A
N3065      H3075   1.044       .  S
C3066      C3067   1.394       .  A
C3067      H3073   1.081       .  S
N3068      C3069   1.354       .  A
N3068      H3076   1.045       .  S
C3069      C3070   1.401       .  A
C3070      H3074   1.082       .  S
C3077      C3082   1.383       .  A
C3077      C3078   1.407       .  A
C3077      N3083   1.347       .  A
C3078      C3079   1.406       .  A
C3078      H3089   1.082       .  S
C3079      C3088   1.381       .  A
C3079      C3080   1.384       .  A
C3080      C3081   1.403       .  A
C3080      N3086   1.344       .  A
C3081      C3082   1.403       .  A
C3081      H3090   1.082       .  S
C3082      C3085   1.375       .  A
N3083      C3084   1.359       .  A
N3083      H3093   1.043       .  S
C3084      C3085   1.398       .  A
C3085      H3091   1.082       .  S
N3086      C3087   1.355       .  A
N3086      H3094   1.045       .  S
C3087      C3088   1.398       .  A
C3088      H3092   1.082       .  S
C3095      C3100   1.385       .  A
C3095      C3096   1.402       .  A
C3095      N3101   1.343       .  A
C3096      C3097   1.401       .  A
C3096      H3107   1.082       .  S
C3097      C3106   1.375       .  A
C3097      C3098   1.384       .  A
C3098      C3099   1.410       .  A
C3098      N3104   1.351       .  A
C3099      C3100   1.410       .  A
C3099      H3108   1.082       .  S
C3100      C3103   1.386       .  A
N3101      C3102   1.354       .  A
N3101      H3111   1.045       .  S
C3102      C3103   1.399       .  A
C3103      H3109   1.082       .  S
N3104      C3105   1.359       .  A
N3104      H3112   1.045       .  S
C3105      C3106   1.394       .  A
C3106      H3110   1.083       .  S
C3113      C3118   1.382       .  A
C3113      C3114   1.408       .  A
C3113      N3119   1.346       .  A
C3114      C3115   1.406       .  A
C3114      H3125   1.082       .  S
C3115      C3124   1.384       .  A
C3115      C3116   1.384       .  A
C3116      C3117   1.405       .  A
C3116      N3122   1.344       .  A
C3117      C3118   1.404       .  A
C3117      H3126   1.082       .  S
C3118      C3121   1.381       .  A
N3119      C3120   1.360       .  A
N3119      H3129   1.044       .  S
C3120      C3121   1.400       .  A
C3121      H3127   1.082       .  S
N3122      C3123   1.357       .  A
N3122      H3130   1.045       .  S
C3123      C3124   1.399       .  A
C3124      H3128   1.082       .  S
C3131      C3136   1.382       .  A
C3131      C3132   1.407       .  A
C3131      N3137   1.345       .  A
C3132      C3133   1.405       .  A
C3132      H3143   1.082       .  S
C3133      C3142   1.383       .  A
C3133      C3134   1.383       .  A
C3134      C3135   1.406       .  A
C3134      N3140   1.344       .  A
C3135      C3136   1.405       .  A
C3135      H3144   1.082       .  S
C3136      C3139   1.380       .  A
N3137      C3138   1.359       .  A
N3137      H3147   1.044       .  S
C3138      C3139   1.400       .  A
C3139      H3145   1.081       .  S
N3140      C3141   1.358       .  A
N3140      H3148   1.045       .  S
C3141      C3142   1.397       .  A
C3142      H3146   1.082       .  S
C3149      C3154   1.383       .  A
C3149      C3150   1.402       .  A
C3149      N3155   1.341       .  A
C3150      C3151   1.400       .  A
C3150      H3161   1.082       .  S
C3151      C3160   1.375       .  A
C3151      C3152   1.384       .  A
C3152      C3153   1.408       .  A
C3152      N3158   1.348       .  A
C3153      C3154   1.408       .  A
C3153      H3162   1.082       .  S
C3154      C3157   1.384       .  A
N3155      C3156   1.356       .  A
N3155      H3165   1.045       .  S
C3156      C3157   1.402       .  A
C3157      H3163   1.081       .  S
N3158      C3159   1.358       .  A
N3158      H3166   1.045       .  S
C3159      C3160   1.395       .  A
C3160      H3164   1.083       .  S
C3167      C3172   1.384       .  A
C3167      C3168   1.407       .  A
C3167      N3173   1.348       .  A
C3168      C3169   1.407       .  A
C3168      H3179   1.082       .  S
C3169      C3178   1.382       .  A
C3169      C3170   1.385       .  A
C3170      C3171   1.400       .  A
C3170      N3176   1.342       .  A
C3171      C3172   1.400       .  A
C3171      H3180   1.082       .  S
C3172      C3175   1.373       .  A
N3173      C3174   1.358       .  A
N3173      H3183   1.045       .  S
C3174      C3175   1.393       .  A
C3175      H3181   1.083       .  S
N3176      C3177   1.353       .  A
N3176      H3184   1.045       .  S
C3177      C3178   1.397       .  A
C3178      H3182   1.082       .  S
C3185      C3190   1.382       .  A
C3185      C3186   1.408       .  A
C3185      N3191   1.345       .  A
C3186      C3187   1.406       .  A
C3186      H3197   1.082       .  S
C3187      C3196   1.383       .  A
C3187      C3188   1.384       .  A
C3188      C3189   1.403       .  A
C3188      N3194   1.343       .  A
C3189      C3190   1.402       .  A
C3189      H3198   1.082       .  S
C3190      C3193   1.378       .  A
N3191      C3192   1.360       .  A
N3191      H3201   1.045       .  S
C3192      C3193   1.398       .  A
C3193      H3199   1.082       .  S
N3194      C3195   1.355       .  A
N3194      H3202   1.045       .  S
C3195      C3196   1.398       .  A
C3196      H3200   1.082       .  S
C3203      C3208   1.383       .  A
C3203      C3204   1.403       .  A
C3203      N3209   1.340       .  A
C3204      C3205   1.401       .  A
C3204      H3215   1.082       .  S
C3205      C3214   1.381       .  A
C3205      C3206   1.384       .  A
C3206      C3207   1.408       .  A
C3206      N3212   1.344       .  A
C3207      C3208   1.406       .  A
C3207      H3216   1.082       .  S
C3208      C3211   1.385       .  A
N3209      C3210   1.357       .  A
N3209      H3219   1.043       .  S
C3210      C3211   1.398       .  A
C3211      H3217   1.082       .  S
N3212      C3213   1.358       .  A
N3212      H3220   1.045       .  S
C3213      C3214   1.395       .  A
C3214      H3218   1.082       .  S
C3221      C3226   1.382       .  A
C3221      C3222   1.410       .  A
C3221      N3227   1.348       .  A
C3222      C3223   1.408       .  A
C3222      H3233   1.082       .  S
C3223      C3232   1.386       .  A
C3223      C3224   1.384       .  A
C3224      C3225   1.403       .  A
C3224      N3230   1.342       .  A
C3225      C3226   1.401       .  A
C3225      H3234   1.082       .  S
C3226      C3229   1.377       .  A
N3227      C3228   1.361       .  A
N3227      H3237   1.044       .  S
C3228      C3229   1.397       .  A
C3229      H3235   1.081       .  S
N3230      C3231   1.356       .  A
N3230      H3238   1.045       .  S
C3231      C3232   1.399       .  A
C3232      H3236   1.082   1_655  S
C3239      C3244   1.383       .  A
C3239      C3240   1.403       .  A
C3239      N3245   1.345       .  A
C3240      C3241   1.403       .  A
C3240      H3251   1.082       .  S
C3241      C3250   1.376       .  A
C3241      C3242   1.384       .  A
C3242      C3243   1.404       .  A
C3242      N3248   1.346       .  A
C3243      C3244   1.405       .  A
C3243      H3252   1.082       .  S
C3244      C3247   1.375       .  A
N3245      C3246   1.357       .  A
N3245      H3255   1.044       .  S
C3246      C3247   1.401       .  A
C3247      H3253   1.082       .  S
N3248      C3249   1.356       .  A
N3248      H3256   1.045       .  S
C3249      C3250   1.395       .  A
C3250      H3254   1.082       .  S
C3257      C3262   1.384       .  A
C3257      C3258   1.409       .  A
C3257      N3263   1.349       .  A
C3258      C3259   1.409       .  A
C3258      H3269   1.082       .  S
C3259      C3268   1.385       .  A
C3259      C3260   1.384       .  A
C3260      C3261   1.401       .  A
C3260      N3266   1.343       .  A
C3261      C3262   1.400       .  A
C3261      H3270   1.082       .  S
C3262      C3265   1.375       .  A
N3263      C3264   1.357       .  A
N3263      H3273   1.044       .  S
C3264      C3265   1.392       .  A
C3265      H3271   1.083       .  S
N3266      C3267   1.355       .  A
N3266      H3274   1.045       .  S
C3267      C3268   1.400       .  A
C3268      H3272   1.082       .  S
C3275      C3280   1.385       .  A
C3275      C3276   1.404       .  A
C3275      N3281   1.346       .  A
C3276      C3277   1.404       .  A
C3276      H3287   1.082       .  S
C3277      C3286   1.378       .  A
C3277      C3278   1.384       .  A
C3278      C3279   1.408       .  A
C3278      N3284   1.349       .  A
C3279      C3280   1.408       .  A
C3279      H3288   1.082       .  S
C3280      C3283   1.382       .  A
N3281      C3282   1.354       .  A
N3281      H3291   1.045       .  S
C3282      C3283   1.398       .  A
C3283      H3289   1.082       .  S
N3284      C3285   1.358       .  A
N3284      H3292   1.045       .  S
C3285      C3286   1.396       .  A
C3286      H3290   1.082       .  S
C3293      C3298   1.384       .  A
C3293      C3294   1.406       .  A
C3293      N3299   1.345       .  A
C3294      C3295   1.405       .  A
C3294      H3305   1.082       .  S
C3295      C3304   1.383       .  A
C3295      C3296   1.384       .  A
C3296      C3297   1.404       .  A
C3296      N3302   1.343       .  A
C3297      C3298   1.403       .  A
C3297      H3306   1.082       .  S
C3298      C3301   1.379       .  A
N3299      C3300   1.356       .  A
N3299      H3309   1.045       .  S
C3300      C3301   1.395       .  A
C3301      H3307   1.083       .  S
N3302      C3303   1.356       .  A
N3302      H3310   1.045       .  S
C3303      C3304   1.397       .  A
C3304      H3308   1.082       .  S
C3311      C3316   1.382       .  A
C3311      C3312   1.408       .  A
C3311      N3317   1.347       .  A
C3312      C3313   1.408       .  A
C3312      H3323   1.082       .  S
C3313      C3322   1.384       .  A
C3313      C3314   1.384       .  A
C3314      C3315   1.404       .  A
C3314      N3320   1.344       .  A
C3315      C3316   1.403       .  A
C3315      H3324   1.082       .  S
C3316      C3319   1.377       .  A
N3317      C3318   1.361       .  A
N3317      H3327   1.044       .  S
C3318      C3319   1.398       .  A
C3319      H3325   1.081       .  S
N3320      C3321   1.357       .  A
N3320      H3328   1.045       .  S
C3321      C3322   1.399       .  A
C3322      H3326   1.082       .  S
C3329      C3334   1.382       .  A
C3329      C3330   1.404       .  A
C3329      N3335   1.341       .  A
C3330      C3331   1.402       .  A
C3330      H3341   1.082       .  S
C3331      C3340   1.381       .  A
C3331      C3332   1.384       .  A
C3332      C3333   1.408       .  A
C3332      N3338   1.345       .  A
C3333      C3334   1.406       .  A
C3333      H3342   1.082       .  S
C3334      C3337   1.384       .  A
N3335      C3336   1.358       .  A
N3335      H3345   1.044       .  S
C3336      C3337   1.399       .  A
C3337      H3343   1.082       .  S
N3338      C3339   1.358       .  A
N3338      H3346   1.045       .  S
C3339      C3340   1.396       .  A
C3340      H3344   1.082       .  S
C3347      C3352   1.384       .  A
C3347      C3348   1.400       .  A
C3347      N3353   1.340       .  A
C3348      C3349   1.399       .  A
C3348      H3359   1.083       .  S
C3349      C3358   1.372       .  A
C3349      C3350   1.384       .  A
C3350      C3351   1.405       .  A
C3350      N3356   1.344       .  A
C3351      C3352   1.404       .  A
C3351      H3360   1.082       .  S
C3352      C3355   1.381       .  A
N3353      C3354   1.354       .  A
N3353      H3363   1.045       .  S
C3354      C3355   1.396       .  A
C3355      H3361   1.082       .  S
N3356      C3357   1.359       .  A
N3356      H3364   1.043       .  S
C3357      C3358   1.395       .  A
C3358      H3362   1.083       .  S
C3365      C3370   1.383       .  A
C3365      C3366   1.401       .  A
C3365      N3371   1.340       .  A
C3366      C3367   1.399       .  A
C3366      H3377   1.082       .  S
C3367      C3376   1.374       .  A
C3367      C3368   1.384       .  A
C3368      C3369   1.405       .  A
C3368      N3374   1.345       .  A
C3369      C3370   1.406       .  A
C3369      H3378   1.082       .  S
C3370      C3373   1.381       .  A
N3371      C3372   1.356       .  A
N3371      H3381   1.045       .  S
C3372      C3373   1.401       .  A
C3373      H3379   1.081       .  S
N3374      C3375   1.357       .  A
N3374      H3382   1.045       .  S
C3375      C3376   1.393       .  A
C3376      H3380   1.083       .  S
C3383      C3388   1.383       .  A
C3383      C3384   1.405       .  A
C3383      N3389   1.341       .  A
C3384      C3385   1.402       .  A
C3384      H3395   1.082       .  S
C3385      C3394   1.380       .  A
C3385      C3386   1.384       .  A
C3386      C3387   1.406       .  A
C3386      N3392   1.344       .  A
C3387      C3388   1.405       .  A
C3387      H3396   1.082       .  S
C3388      C3391   1.384       .  A
N3389      C3390   1.358       .  A
N3389      H3399   1.045       .  S
C3390      C3391   1.399       .  A
C3391      H3397   1.081       .  S
N3392      C3393   1.357       .  A
N3392      H3400   1.045       .  S
C3393      C3394   1.396       .  A
C3394      H3398   1.082       .  S
C3401      C3406   1.385       .  A
C3401      C3402   1.406       .  A
C3401      N3407   1.345       .  A
C3402      C3403   1.405       .  A
C3402      H3413   1.082       .  S
C3403      C3412   1.383       .  A
C3403      C3404   1.384       .  A
C3404      C3405   1.404       .  A
C3404      N3410   1.342       .  A
C3405      C3406   1.402       .  A
C3405      H3414   1.082       .  S
C3406      C3409   1.379       .  A
N3407      C3408   1.356       .  A
N3407      H3417   1.045       .  S
C3408      C3409   1.395       .  A
C3409      H3415   1.082       .  S
N3410      C3411   1.356       .  A
N3410      H3418   1.045       .  S
C3411      C3412   1.395       .  A
C3412      H3416   1.082       .  S
C3419      C3424   1.384       .  A
C3419      C3420   1.402       .  A
C3419      N3425   1.340       .  A
C3420      C3421   1.400       .  A
C3420      H3431   1.082       .  S
C3421      C3430   1.377       .  A
C3421      C3422   1.385       .  A
C3422      C3423   1.403       .  A
C3422      N3428   1.341       .  A
C3423      C3424   1.401       .  A
C3423      H3432   1.082       .  S
C3424      C3427   1.379       .  A
N3425      C3426   1.356       .  A
N3425      H3435   1.044       .  S
C3426      C3427   1.394       .  A
C3427      H3433   1.082       .  S
N3428      C3429   1.356       .  A
N3428      H3436   1.045       .  S
C3429      C3430   1.394       .  A
C3430      H3434   1.082       .  S
C3437      C3442   1.383       .  A
C3437      C3438   1.406       .  A
C3437      N3443   1.345       .  A
C3438      C3439   1.405       .  A
C3438      H3449   1.082       .  S
C3439      C3448   1.379       .  A
C3439      C3440   1.383       .  A
C3440      C3441   1.406       .  A
C3440      N3446   1.345       .  A
C3441      C3442   1.404       .  A
C3441      H3450   1.082       .  S
C3442      C3445   1.381       .  A
N3443      C3444   1.357       .  A
N3443      H3453   1.045       .  S
C3444      C3445   1.396       .  A
C3445      H3451   1.082       .  S
N3446      C3447   1.360       .  A
N3446      H3454   1.043       .  S
C3447      C3448   1.400       .  A
C3448      H3452   1.082       .  S
C3455      C3460   1.385       .  A
C3455      C3456   1.402       .  A
C3455      N3461   1.344       .  A
C3456      C3457   1.402       .  A
C3456      H3467   1.082       .  S
C3457      C3466   1.375       .  A
C3457      C3458   1.384       .  A
C3458      C3459   1.406       .  A
C3458      N3464   1.348       .  A
C3459      C3460   1.406       .  A
C3459      H3468   1.082       .  S
C3460      C3463   1.380       .  A
N3461      C3462   1.354       .  A
N3461      H3471   1.045       .  S
C3462      C3463   1.396       .  A
C3463      H3469   1.082       .  S
N3464      C3465   1.357       .  A
N3464      H3472   1.045       .  S
C3465      C3466   1.395       .  A
C3466      H3470   1.083       .  S
C3473      C3478   1.384       .  A
C3473      C3474   1.406       .  A
C3473      N3479   1.342       .  A
C3474      C3475   1.403       .  A
C3474      H3485   1.082       .  S
C3475      C3484   1.381       .  A
C3475      C3476   1.382       .  A
C3476      C3477   1.404       .  A
C3476      N3482   1.340       .  A
C3477      C3478   1.402       .  A
C3477      H3486   1.082       .  S
C3478      C3481   1.381       .  A
N3479      C3480   1.358       .  A
N3479      H3489   1.045       .  S
C3480      C3481   1.395       .  A
C3481      H3487   1.082       .  S
N3482      C3483   1.359       .  A
N3482      H3490   1.044       .  S
C3483      C3484   1.398       .  A
C3484      H3488   1.082       .  S
C3491      C3496   1.385       .  A
C3491      C3492   1.403       .  A
C3491      N3497   1.346       .  A
C3492      C3493   1.404       .  A
C3492      H3503   1.083       .  S
C3493      C3502   1.373       .  A
C3493      C3494   1.384       .  A
C3494      C3495   1.400       .  A
C3494      N3500   1.345       .  A
C3495      C3496   1.401       .  A
C3495      H3504   1.082       .  S
C3496      C3499   1.372       .  A
N3497      C3498   1.356       .  A
N3497      H3507   1.045       .  S
C3498      C3499   1.394       .  A
C3499      H3505   1.082       .  S
N3500      C3501   1.354       .  A
N3500      H3508   1.044       .  S
C3501      C3502   1.399       .  A
C3502      H3506   1.082       .  S
C3509      C3514   1.385       .  A
C3509      C3510   1.403       .  A
C3509      N3515   1.346       .  A
C3510      C3511   1.404       .  A
C3510      H3521   1.082       .  S
C3511      C3520   1.376       .  A
C3511      C3512   1.386       .  A
C3512      C3513   1.400       .  A
C3512      N3518   1.343       .  A
C3513      C3514   1.400       .  A
C3513      H3522   1.082       .  S
C3514      C3517   1.372       .  A
N3515      C3516   1.355       .  A
N3515      H3525   1.045       .  S
C3516      C3517   1.393       .  A
C3517      H3523   1.083       .  S
N3518      C3519   1.352       .  A
N3518      H3526   1.045       .  S
C3519      C3520   1.394       .  A
C3520      H3524   1.082       .  S
C3527      C3532   1.384       .  A
C3527      C3528   1.408       .  A
C3527      N3533   1.349       .  A
C3528      C3529   1.408       .  A
C3528      H3539   1.082       .  S
C3529      C3538   1.382       .  A
C3529      C3530   1.384       .  A
C3530      C3531   1.404       .  A
C3530      N3536   1.345       .  A
C3531      C3532   1.404       .  A
C3531      H3540   1.082       .  S
C3532      C3535   1.377       .  A
N3533      C3534   1.357       .  A
N3533      H3543   1.044       .  S
C3534      C3535   1.396       .  A
C3535      H3541   1.083       .  S
N3536      C3537   1.355       .  A
N3536      H3544   1.045       .  S
C3537      C3538   1.398       .  A
C3538      H3542   1.082       .  S
C3545      C3550   1.386       .  A
C3545      C3546   1.399       .  A
C3545      N3551   1.343       .  A
C3546      C3547   1.400       .  A
C3546      H3557   1.082       .  S
C3547      C3556   1.371       .  A
C3547      C3548   1.385       .  A
C3548      C3549   1.402       .  A
C3548      N3554   1.344       .  A
C3549      C3550   1.402       .  A
C3549      H3558   1.082       .  S
C3550      C3553   1.374       .  A
N3551      C3552   1.352       .  A
N3551      H3561   1.045       .  S
C3552      C3553   1.394       .  A
C3553      H3559   1.083       .  S
N3554      C3555   1.353       .  A
N3554      H3562   1.045       .  S
C3555      C3556   1.393       .  A
C3556      H3560   1.082       .  S
C3563      C3568   1.385       .  A
C3563      C3564   1.405       .  A
C3563      N3569   1.345       .  A
C3564      C3565   1.404       .  A
C3564      H3575   1.082       .  S
C3565      C3574   1.381       .  A
C3565      C3566   1.384       .  A
C3566      C3567   1.405       .  A
C3566      N3572   1.343       .  A
C3567      C3568   1.404       .  A
C3567      H3576   1.082       .  S
C3568      C3571   1.380       .  A
N3569      C3570   1.355       .  A
N3569      H3579   1.045       .  S
C3570      C3571   1.396       .  A
C3571      H3577   1.083       .  S
N3572      C3573   1.356       .  A
N3572      H3580   1.045       .  S
C3573      C3574   1.395       .  A
C3574      H3578   1.082       .  S
C3581      C3586   1.384       .  A
C3581      C3582   1.406       .  A
C3581      N3587   1.349       .  A
C3582      C3583   1.407       .  A
C3582      H3593   1.082       .  S
C3583      C3592   1.377       .  A
C3583      C3584   1.384       .  A
C3584      C3585   1.403       .  A
C3584      N3590   1.347       .  A
C3585      C3586   1.404       .  A
C3585      H3594   1.082       .  S
C3586      C3589   1.376       .  A
N3587      C3588   1.357       .  A
N3587      H3597   1.045       .  S
C3588      C3589   1.396       .  A
C3589      H3595   1.082       .  S
N3590      C3591   1.355       .  A
N3590      H3598   1.044       .  S
C3591      C3592   1.400       .  A
C3592      H3596   1.082       .  S
C3599      C3604   1.384       .  A
C3599      C3600   1.407       .  A
C3599      N3605   1.350       .  A
C3600      C3601   1.408       .  A
C3600      H3611   1.082       .  S
C3601      C3610   1.381       .  A
C3601      C3602   1.382       .  A
C3602      C3603   1.406       .  A
C3602      N3608   1.348       .  A
C3603      C3604   1.407       .  A
C3603      H3612   1.082       .  S
C3604      C3607   1.380       .  A
N3605      C3606   1.358       .  A
N3605      H3615   1.044       .  S
C3606      C3607   1.399       .  A
C3607      H3613   1.082       .  S
N3608      C3609   1.359       .  A
N3608      H3616   1.043       .  S
C3609      C3610   1.402       .  A
C3610      H3614   1.081       .  S
C3617      C3622   1.383       .  A
C3617      C3618   1.404       .  A
C3617      N3623   1.343       .  A
C3618      C3619   1.403       .  A
C3618      H3629   1.082       .  S
C3619      C3628   1.380       .  A
C3619      C3620   1.383       .  A
C3620      C3621   1.407       .  A
C3620      N3626   1.346       .  A
C3621      C3622   1.406       .  A
C3621      H3630   1.082       .  S
C3622      C3625   1.382       .  A
N3623      C3624   1.357       .  A
N3623      H3633   1.045       .  S
C3624      C3625   1.402       .  A
C3625      H3631   1.081       .  S
N3626      C3627   1.358       .  A
N3626      H3634   1.045       .  S
C3627      C3628   1.396       .  A
C3628      H3632   1.082       .  S
C3635      C3640   1.385       .  A
C3635      C3636   1.407       .  A
C3635      N3641   1.347       .  A
C3636      C3637   1.407       .  A
C3636      H3647   1.082       .  S
C3637      C3646   1.384       .  A
C3637      C3638   1.384       .  A
C3638      C3639   1.403       .  A
C3638      N3644   1.343       .  A
C3639      C3640   1.401       .  A
C3639      H3648   1.082       .  S
C3640      C3643   1.376       .  A
N3641      C3642   1.356       .  A
N3641      H3651   1.044       .  S
C3642      C3643   1.392       .  A
C3643      H3649   1.083       .  S
N3644      C3645   1.356       .  A
N3644      H3652   1.045       .  S
C3645      C3646   1.397       .  A
C3646      H3650   1.082       .  S
C3653      C3658   1.384       .  A
C3653      C3654   1.399       .  A
C3653      N3659   1.340       .  A
C3654      C3655   1.398       .  A
C3654      H3665   1.083       .  S
C3655      C3664   1.371       .  A
C3655      C3656   1.383       .  A
C3656      C3657   1.408       .  A
C3656      N3662   1.346       .  A
C3657      C3658   1.407       .  A
C3657      H3666   1.082       .  S
C3658      C3661   1.383       .  A
N3659      C3660   1.354       .  A
N3659      H3669   1.045       .  S
C3660      C3661   1.398       .  A
C3661      H3667   1.082       .  S
N3662      C3663   1.359       .  A
N3662      H3670   1.044       .  S
C3663      C3664   1.396       .  A
C3664      H3668   1.082       .  S
C3671      C3676   1.382       .  A
C3671      C3672   1.409       .  A
C3671      N3677   1.346       .  A
C3672      C3673   1.408       .  A
C3672      H3683   1.082       .  S
C3673      C3682   1.386       .  A
C3673      C3674   1.384       .  A
C3674      C3675   1.400       .  A
C3674      N3680   1.339       .  A
C3675      C3676   1.399       .  A
C3675      H3684   1.082       .  S
C3676      C3679   1.374       .  A
N3677      C3678   1.361       .  A
N3677      H3687   1.044       .  S
C3678      C3679   1.396       .  A
C3679      H3685   1.081       .  S
N3680      C3681   1.355       .  A
N3680      H3688   1.045       .  S
C3681      C3682   1.399       .  A
C3682      H3686   1.082       .  S
C3689      C3694   1.384       .  A
C3689      C3690   1.406       .  A
C3689      N3695   1.349       .  A
C3690      C3691   1.407       .  A
C3690      H3701   1.082       .  S
C3691      C3700   1.378       .  A
C3691      C3692   1.383       .  A
C3692      C3693   1.402       .  A
C3692      N3698   1.344       .  A
C3693      C3694   1.402       .  A
C3693      H3702   1.082       .  S
C3694      C3697   1.373       .  A
N3695      C3696   1.357       .  A
N3695      H3705   1.045   1_565  S
C3696      C3697   1.396       .  A
C3697      H3703   1.083       .  S
N3698      C3699   1.357       .  A
N3698      H3706   1.044       .  S
C3699      C3700   1.400       .  A
C3700      H3704   1.082       .  S
C3707      C3712   1.383       .  A
C3707      C3708   1.403       .  A
C3707      N3713   1.342       .  A
C3708      C3709   1.402       .  A
C3708      H3719   1.082       .  S
C3709      C3718   1.377       .  A
C3709      C3710   1.385       .  A
C3710      C3711   1.402       .  A
C3710      N3716   1.343       .  A
C3711      C3712   1.401       .  A
C3711      H3720   1.082       .  S
C3712      C3715   1.375       .  A
N3713      C3714   1.357       .  A
N3713      H3723   1.045       .  S
C3714      C3715   1.398       .  A
C3715      H3721   1.081       .  S
N3716      C3717   1.355       .  A
N3716      H3724   1.045       .  S
C3717      C3718   1.395       .  A
C3718      H3722   1.082       .  S
C3725      C3730   1.383       .  A
C3725      C3726   1.406       .  A
C3725      N3731   1.344       .  A
C3726      C3727   1.404       .  A
C3726      H3737   1.082       .  S
C3727      C3736   1.381       .  A
C3727      C3728   1.384       .  A
C3728      C3729   1.403       .  A
C3728      N3734   1.342       .  A
C3729      C3730   1.402       .  A
C3729      H3738   1.082       .  S
C3730      C3733   1.377       .  A
N3731      C3732   1.359       .  A
N3731      H3741   1.044       .  S
C3732      C3733   1.398       .  A
C3733      H3739   1.081       .  S
N3734      C3735   1.356       .  A
N3734      H3742   1.045       .  S
C3735      C3736   1.396       .  A
C3736      H3740   1.082       .  S
C3743      C3748   1.384       .  A
C3743      C3744   1.403       .  A
C3743      N3749   1.344       .  A
C3744      C3745   1.403       .  A
C3744      H3755   1.082       .  S
C3745      C3754   1.378       .  A
C3745      C3746   1.382       .  A
C3746      C3747   1.407       .  A
C3746      N3752   1.346       .  A
C3747      C3748   1.406       .  A
C3747      H3756   1.082       .  S
C3748      C3751   1.382       .  A
N3749      C3750   1.355       .  A
N3749      H3759   1.045       .  S
C3750      C3751   1.398       .  A
C3751      H3757   1.082       .  S
N3752      C3753   1.359       .  A
N3752      H3760   1.045       .  S
C3753      C3754   1.399       .  A
C3754      H3758   1.081       .  S
C3761      C3766   1.384       .  A
C3761      C3762   1.406       .  A
C3761      N3767   1.345       .  A
C3762      C3763   1.405       .  A
C3762      H3773   1.082       .  S
C3763      C3772   1.381       .  A
C3763      C3764   1.384       .  A
C3764      C3765   1.407       .  A
C3764      N3770   1.347       .  A
C3765      C3766   1.406       .  A
C3765      H3774   1.082       .  S
C3766      C3769   1.381       .  A
N3767      C3768   1.356       .  A
N3767      H3777   1.045       .  S
C3768      C3769   1.396       .  A
C3769      H3775   1.083       .  S
N3770      C3771   1.358       .  A
N3770      H3778   1.045       .  S
C3771      C3772   1.397       .  A
C3772      H3776   1.082       .  S
C3779      C3784   1.384       .  A
C3779      C3780   1.402       .  A
C3779      N3785   1.341       .  A
C3780      C3781   1.400       .  A
C3780      H3791   1.082       .  S
C3781      C3790   1.377       .  A
C3781      C3782   1.384       .  A
C3782      C3783   1.406       .  A
C3782      N3788   1.345       .  A
C3783      C3784   1.406       .  A
C3783      H3792   1.082       .  S
C3784      C3787   1.382       .  A
N3785      C3786   1.356       .  A
N3785      H3795   1.045       .  S
C3786      C3787   1.401       .  A
C3787      H3793   1.081       .  S
N3788      C3789   1.357       .  A
N3788      H3796   1.045       .  S
C3789      C3790   1.395       .  A
C3790      H3794   1.082       .  S
C3797      C3802   1.384       .  A
C3797      C3798   1.400       .  A
C3797      N3803   1.339       .  A
C3798      C3799   1.399       .  A
C3798      H3809   1.082       .  S
C3799      C3808   1.373       .  A
C3799      C3800   1.384       .  A
C3800      C3801   1.404       .  A
C3800      N3806   1.344       .  A
C3801      C3802   1.404       .  A
C3801      H3810   1.082       .  S
C3802      C3805   1.378       .  A
N3803      C3804   1.355       .  A
N3803      H3813   1.045       .  S
C3804      C3805   1.400       .  A
C3805      H3811   1.081       .  S
N3806      C3807   1.356       .  A
N3806      H3814   1.045       .  S
C3807      C3808   1.393       .  A
C3808      H3812   1.082       .  S
C3815      C3820   1.385       .  A
C3815      C3816   1.401       .  A
C3815      N3821   1.341       .  A
C3816      C3817   1.400       .  A
C3816      H3827   1.082       .  S
C3817      C3826   1.375       .  A
C3817      C3818   1.383       .  A
C3818      C3819   1.405       .  A
C3818      N3824   1.343       .  A
C3819      C3820   1.403       .  A
C3819      H3828   1.082       .  S
C3820      C3823   1.379       .  A
N3821      C3822   1.354       .  A
N3821      H3831   1.045       .  S
C3822      C3823   1.396       .  A
C3823      H3829   1.082       .  S
N3824      C3825   1.358       .  A
N3824      H3832   1.044       .  S
C3825      C3826   1.397       .  A
C3826      H3830   1.082       .  S
C3833      C3838   1.384       .  A
C3833      C3834   1.404       .  A
C3833      N3839   1.342       .  A
C3834      C3835   1.403       .  A
C3834      H3845   1.082       .  S
C3835      C3844   1.381       .  A
C3835      C3836   1.384       .  A
C3836      C3837   1.407       .  A
C3836      N3842   1.344       .  A
C3837      C3838   1.405       .  A
C3837      H3846   1.082       .  S
C3838      C3841   1.384       .  A
N3839      C3840   1.355       .  A
N3839      H3849   1.045       .  S
C3840      C3841   1.396       .  A
C3841      H3847   1.082       .  S
N3842      C3843   1.358       .  A
N3842      H3850   1.045       .  S
C3843      C3844   1.395       .  A
C3844      H3848   1.082       .  S
C3851      C3856   1.384       .  A
C3851      C3852   1.404       .  A
C3851      N3857   1.346       .  A
C3852      C3853   1.404       .  A
C3852      H3863   1.082       .  S
C3853      C3862   1.376       .  A
C3853      C3854   1.383       .  A
C3854      C3855   1.403       .  A
C3854      N3860   1.345       .  A
C3855      C3856   1.403       .  A
C3855      H3864   1.082       .  S
C3856      C3859   1.375       .  A
N3857      C3858   1.356       .  A
N3857      H3867   1.045       .  S
C3858      C3859   1.397       .  A
C3859      H3865   1.083       .  S
N3860      C3861   1.358       .  A
N3860      H3868   1.043       .  S
C3861      C3862   1.400       .  A
C3862      H3866   1.081       .  S
C3869      C3874   1.385       .  A
C3869      C3870   1.400       .  A
C3869      N3875   1.339       .  A
C3870      C3871   1.399       .  A
C3870      H3881   1.082       .  S
C3871      C3880   1.376       .  A
C3871      C3872   1.386       .  A
C3872      C3873   1.402       .  A
C3872      N3878   1.340       .  A
C3873      C3874   1.400       .  A
C3873      H3882   1.082       .  S
C3874      C3877   1.377       .  A
N3875      C3876   1.354       .  A
N3875      H3885   1.045       .  S
C3876      C3877   1.393       .  A
C3877      H3883   1.082       .  S
N3878      C3879   1.353       .  A
N3878      H3886   1.045       .  S
C3879      C3880   1.390       .  A
C3880      H3884   1.083       .  S
C3887      C3892   1.385       .  A
C3887      C3888   1.399       .  A
C3887      N3893   1.338       .  A
C3888      C3889   1.397       .  A
C3888      H3899   1.083       .  S
C3889      C3898   1.374       .  A
C3889      C3890   1.385       .  A
C3890      C3891   1.404       .  A
C3890      N3896   1.342       .  A
C3891      C3892   1.402       .  A
C3891      H3900   1.082       .  S
C3892      C3895   1.379       .  A
N3893      C3894   1.355       .  A
N3893      H3903   1.045       .  S
C3894      C3895   1.394       .  A
C3895      H3901   1.082       .  S
N3896      C3897   1.356       .  A
N3896      H3904   1.045       .  S
C3897      C3898   1.391       .  A
C3898      H3902   1.082       .  S
C3905      C3910   1.383       .  A
C3905      C3906   1.403       .  A
C3905      N3911   1.343       .  A
C3906      C3907   1.403       .  A
C3906      H3917   1.082       .  S
C3907      C3916   1.377       .  A
C3907      C3908   1.384       .  A
C3908      C3909   1.404       .  A
C3908      N3914   1.346       .  A
C3909      C3910   1.405       .  A
C3909      H3918   1.082       .  S
C3910      C3913   1.378       .  A
N3911      C3912   1.357       .  A
N3911      H3921   1.045       .  S
C3912      C3913   1.402       .  A
C3913      H3919   1.081       .  S
N3914      C3915   1.356       .  A
N3914      H3922   1.045       .  S
C3915      C3916   1.396       .  A
C3916      H3920   1.082       .  S
C3923      C3928   1.384       .  A
C3923      C3924   1.408       .  A
C3923      N3929   1.346       .  A
C3924      C3925   1.407       .  A
C3924      H3935   1.082       .  S
C3925      C3934   1.383       .  A
C3925      C3926   1.383       .  A
C3926      C3927   1.401       .  A
C3926      N3932   1.340       .  A
C3927      C3928   1.399       .  A
C3927      H3936   1.082       .  S
C3928      C3931   1.376       .  A
N3929      C3930   1.358       .  A
N3929      H3939   1.045       .  S
C3930      C3931   1.393       .  A
C3931      H3937   1.082       .  S
N3932      C3933   1.356       .  A
N3932      H3940   1.045       .  S
C3933      C3934   1.401       .  A
C3934      H3938   1.081       .  S
C3941      C3946   1.384       .  A
C3941      C3942   1.409       .  A
C3941      N3947   1.351       .  A
C3942      C3943   1.409       .  A
C3942      H3953   1.082       .  S
C3943      C3952   1.384       .  A
C3943      C3944   1.384       .  A
C3944      C3945   1.406       .  A
C3944      N3950   1.347       .  A
C3945      C3946   1.406       .  A
C3945      H3954   1.082       .  S
C3946      C3949   1.379       .  A
N3947      C3948   1.358       .  A
N3947      H3957   1.044       .  S
C3948      C3949   1.398       .  A
C3949      H3955   1.082       .  S
N3950      C3951   1.356       .  A
N3950      H3958   1.045       .  S
C3951      C3952   1.398       .  A
C3952      H3956   1.082       .  S
C3959      C3964   1.383       .  A
C3959      C3960   1.412       .  A
C3959      N3965   1.354       .  A
C3960      C3961   1.413       .  A
C3960      H3971   1.082       .  S
C3961      C3970   1.384       .  A
C3961      C3962   1.382       .  A
C3962      C3963   1.404       .  A
C3962      N3968   1.347       .  A
C3963      C3964   1.404       .  A
C3963      H3972   1.082       .  S
C3964      C3967   1.376       .  A
N3965      C3966   1.361       .  A
N3965      H3975   1.044       .  S
C3966      C3967   1.397       .  A
C3967      H3973   1.082       .  S
N3968      C3969   1.358       .  A
N3968      H3976   1.043       .  S
C3969      C3970   1.405       .  A
C3970      H3974   1.081       .  S
C3977      C3982   1.385       .  A
C3977      C3978   1.400       .  A
C3977      N3983   1.343       .  A
C3978      C3979   1.401       .  A
C3978      H3989   1.082       .  S
C3979      C3988   1.372       .  A
C3979      C3980   1.383       .  A
C3980      C3981   1.405       .  A
C3980      N3986   1.346       .  A
C3981      C3982   1.405       .  A
C3981      H3990   1.082       .  S
C3982      C3985   1.377       .  A
N3983      C3984   1.353       .  A
N3983      H3993   1.045       .  S
C3984      C3985   1.397       .  A
C3985      H3991   1.083       .  S
N3986      C3987   1.358       .  A
N3986      H3994   1.044       .  S
C3987      C3988   1.398       .  A
C3988      H3992   1.081       .  S
C3995      C4000   1.385       .  A
C3995      C3996   1.401       .  A
C3995      N4001   1.340       .  A
C3996      C3997   1.399       .  A
C3996      H4007   1.082       .  S
C3997      C4006   1.376       .  A
C3997      C3998   1.384       .  A
C3998      C3999   1.408       .  A
C3998      N4004   1.345       .  A
C3999      C4000   1.407       .  A
C3999      H4008   1.082       .  S
C4000      C4003   1.386       .  A
N4001      C4002   1.354       .  A
N4001      H4011   1.045       .  S
C4002      C4003   1.397       .  A
C4003      H4009   1.082       .  S
N4004      C4005   1.358       .  A
N4004      H4012   1.045       .  S
C4005      C4006   1.391       .  A
C4006      H4010   1.082       .  S
C4013      C4018   1.384       .  A
C4013      C4014   1.406       .  A
C4013      N4019   1.346       .  A
C4014      C4015   1.406       .  A
C4014      H4025   1.082       .  S
C4015      C4024   1.381       .  A
C4015      C4016   1.383       .  A
C4016      C4017   1.402       .  A
C4016      N4022   1.341       .  A
C4017      C4018   1.400       .  A
C4017      H4026   1.082       .  S
C4018      C4021   1.376       .  A
N4019      C4020   1.357       .  A
N4019      H4029   1.045       .  S
C4020      C4021   1.394       .  A
C4021      H4027   1.082       .  S
N4022      C4023   1.356       .  A
N4022      H4030   1.045       .  S
C4023      C4024   1.401       .  A
C4024      H4028   1.081       .  S
C4031      C4036   1.384       .  A
C4031      C4032   1.403       .  A
C4031      N4037   1.344       .  A
C4032      C4033   1.403       .  A
C4032      H4043   1.082       .  S
C4033      C4042   1.378       .  A
C4033      C4034   1.384       .  A
C4034      C4035   1.401       .  A
C4034      N4040   1.341       .  A
C4035      C4036   1.400       .  A
C4035      H4044   1.082       .  S
C4036      C4039   1.375       .  A
N4037      C4038   1.356       .  A
N4037      H4047   1.044       .  S
C4038      C4039   1.394       .  A
C4039      H4045   1.083       .  S
N4040      C4041   1.358       .  A
N4040      H4048   1.042       .  S
C4041      C4042   1.398       .  A
C4042      H4046   1.082       .  S
C4049      C4054   1.384       .  A
C4049      C4050   1.404       .  A
C4049      N4055   1.341       .  A
C4050      C4051   1.402       .  A
C4050      H4061   1.082       .  S
C4051      C4060   1.380       .  A
C4051      C4052   1.383       .  A
C4052      C4053   1.406       .  A
C4052      N4058   1.343       .  A
C4053      C4054   1.404       .  A
C4053      H4062   1.082       .  S
C4054      C4057   1.383       .  A
N4055      C4056   1.356       .  A
N4055      H4065   1.045       .  S
C4056      C4057   1.397       .  A
C4057      H4063   1.082       .  S
N4058      C4059   1.359       .  A
N4058      H4066   1.044       .  S
C4059      C4060   1.396       .  A
C4060      H4064   1.082       .  S
C4067      C4072   1.384       .  A
C4067      C4068   1.403       .  A
C4067      N4073   1.342       .  A
C4068      C4069   1.402       .  A
C4068      H4079   1.082       .  S
C4069      C4078   1.379       .  A
C4069      C4070   1.384       .  A
C4070      C4071   1.407       .  A
C4070      N4076   1.345       .  A
C4071      C4072   1.405       .  A
C4071      H4080   1.082       .  S
C4072      C4075   1.383       .  A
N4073      C4074   1.355       .  A
N4073      H4083   1.045       .  S
C4074      C4075   1.395       .  A
C4075      H4081   1.082       .  S
N4076      C4077   1.357       .  A
N4076      H4084   1.044       .  S
C4077      C4078   1.395       .  A
C4078      H4082   1.082       .  S
C4085      C4090   1.385       .  A
C4085      C4086   1.402       .  A
C4085      N4091   1.344       .  A
C4086      C4087   1.402       .  A
C4086      H4097   1.082       .  S
C4087      C4096   1.375       .  A
C4087      C4088   1.385       .  A
C4088      C4089   1.405       .  A
C4088      N4094   1.347       .  A
C4089      C4090   1.405       .  A
C4089      H4098   1.082       .  S
C4090      C4093   1.379       .  A
N4091      C4092   1.353       .  A
N4091      H4101   1.045       .  S
C4092      C4093   1.396       .  A
C4093      H4099   1.082       .  S
N4094      C4095   1.356       .  A
N4094      H4102   1.045       .  S
C4095      C4096   1.395       .  A
C4096      H4100   1.083       .  S
C4103      C4108   1.385       .  A
C4103      C4104   1.398       .  A
C4103      N4109   1.343       .  A
C4104      C4105   1.399       .  A
C4104      H4115   1.082       .  S
C4105      C4114   1.368       .  A
C4105      C4106   1.382       .  A
C4106      C4107   1.406       .  A
C4106      N4112   1.349       .  A
C4107      C4108   1.408       .  A
C4107      H4116   1.082       .  S
C4108      C4111   1.378       .  A
N4109      C4110   1.353       .  A
N4109      H4119   1.045       .  S
C4110      C4111   1.398       .  A
C4111      H4117   1.082       .  S
N4112      C4113   1.359       .  A
N4112      H4120   1.044       .  S
C4113      C4114   1.398       .  A
C4114      H4118   1.081       .  S
C4121      C4126   1.383       .  A
C4121      C4122   1.402       .  A
C4121      N4127   1.342       .  A
C4122      C4123   1.402       .  A
C4122      H4133   1.082       .  S
C4123      C4132   1.376       .  A
C4123      C4124   1.384       .  A
C4124      C4125   1.404       .  A
C4124      N4130   1.345       .  A
C4125      C4126   1.404       .  A
C4125      H4134   1.082       .  S
C4126      C4129   1.378       .  A
N4127      C4128   1.356       .  A
N4127      H4137   1.045       .  S
C4128      C4129   1.401       .  A
C4129      H4135   1.081       .  S
N4130      C4131   1.356       .  A
N4130      H4138   1.045       .  S
C4131      C4132   1.395       .  A
C4132      H4136   1.082       .  S
C4139      C4144   1.384       .  A
C4139      C4140   1.408       .  A
C4139      N4145   1.348       .  A
C4140      C4141   1.407       .  A
C4140      H4151   1.082       .  S
C4141      C4150   1.382       .  A
C4141      C4142   1.383       .  A
C4142      C4143   1.403       .  A
C4142      N4148   1.343       .  A
C4143      C4144   1.403       .  A
C4143      H4152   1.082       .  S
C4144      C4147   1.378       .  A
N4145      C4146   1.359       .  A
N4145      H4155   1.045       .  S
C4146      C4147   1.396       .  A
C4147      H4153   1.082       .  S
N4148      C4149   1.357       .  A
N4148      H4156   1.045       .  S
C4149      C4150   1.401       .  A
C4150      H4154   1.081       .  S
C4157      C4162   1.384       .  A
C4157      C4158   1.404       .  A
C4157      N4163   1.342       .  A
C4158      C4159   1.402       .  A
C4158      H4169   1.082       .  S
C4159      C4168   1.380       .  A
C4159      C4160   1.384       .  A
C4160      C4161   1.408       .  A
C4160      N4166   1.347       .  A
C4161      C4162   1.407       .  A
C4161      H4170   1.082       .  S
C4162      C4165   1.386       .  A
N4163      C4164   1.356       .  A
N4163      H4173   1.045       .  S
C4164      C4165   1.398       .  A
C4165      H4171   1.082       .  S
N4166      C4167   1.357       .  A
N4166      H4174   1.045       .  S
C4167      C4168   1.393       .  A
C4168      H4172   1.083       .  S
C4175      C4180   1.384       .  A
C4175      C4176   1.402       .  A
C4175      N4181   1.340       .  A
C4176      C4177   1.400       .  A
C4176      H4187   1.082       .  S
C4177      C4186   1.377       .  A
C4177      C4178   1.383       .  A
C4178      C4179   1.407       .  A
C4178      N4184   1.344       .  A
C4179      C4180   1.405       .  A
C4179      H4188   1.082       .  S
C4180      C4183   1.383       .  A
N4181      C4182   1.356       .  A
N4181      H4191   1.045       .  S
C4182      C4183   1.397       .  A
C4183      H4189   1.082       .  S
N4184      C4185   1.360       .  A
N4184      H4192   1.044       .  S
C4185      C4186   1.395       .  A
C4186      H4190   1.081       .  S
C4193      C4198   1.384       .  A
C4193      C4194   1.403       .  A
C4193      N4199   1.341       .  A
C4194      C4195   1.401       .  A
C4194      H4205   1.082       .  S
C4195      C4204   1.380       .  A
C4195      C4196   1.384       .  A
C4196      C4197   1.408       .  A
C4196      N4202   1.345       .  A
C4197      C4198   1.406       .  A
C4197      H4206   1.082       .  S
C4198      C4201   1.385       .  A
N4199      C4200   1.356       .  A
N4199      H4209   1.044       .  S
C4200      C4201   1.397       .  A
C4201      H4207   1.082       .  S
N4202      C4203   1.359       .  A
N4202      H4210   1.045       .  S
C4203      C4204   1.395       .  A
C4204      H4208   1.082       .  S
C4211      C4216   1.384       .  A
C4211      C4212   1.403       .  A
C4211      N4217   1.339       .  A
C4212      C4213   1.400       .  A
C4212      H4223   1.082       .  S
C4213      C4222   1.379       .  A
C4213      C4214   1.385       .  A
C4214      C4215   1.406       .  A
C4214      N4220   1.342       .  A
C4215      C4216   1.404       .  A
C4215      H4224   1.082       .  S
C4216      C4219   1.385       .  A
N4217      C4218   1.355       .  A
N4217      H4227   1.045       .  S
C4218      C4219   1.396       .  A
C4219      H4225   1.082       .  S
N4220      C4221   1.356       .  A
N4220      H4228   1.045       .  S
C4221      C4222   1.391       .  A
C4222      H4226   1.082       .  S
C4229      C4234   1.383       .  A
C4229      C4230   1.407       .  A
C4229      N4235   1.345       .  A
C4230      C4231   1.405       .  A
C4230      H4241   1.082       .  S
C4231      C4240   1.381       .  A
C4231      C4232   1.384       .  A
C4232      C4233   1.401       .  A
C4232      N4238   1.341       .  A
C4233      C4234   1.400       .  A
C4233      H4242   1.082       .  S
C4234      C4237   1.375       .  A
N4235      C4236   1.362       .  A
N4235      H4245   1.043       .  S
C4236      C4237   1.396       .  A
C4237      H4243   1.082       .  S
N4238      C4239   1.354       .  A
N4238      H4246   1.045       .  S
C4239      C4240   1.397       .  A
C4240      H4244   1.082       .  S
C4247      C4252   1.382       .  A
C4247      C4248   1.406       .  A
C4247      N4253   1.346       .  A
C4248      C4249   1.404       .  A
C4248      H4259   1.082       .  S
C4249      C4258   1.380       .  A
C4249      C4250   1.384       .  A
C4250      C4251   1.406       .  A
C4250      N4256   1.346       .  A
C4251      C4252   1.406       .  A
C4251      H4260   1.082       .  S
C4252      C4255   1.380       .  A
N4253      C4254   1.359       .  A
N4253      H4263   1.044       .  S
C4254      C4255   1.401       .  A
C4255      H4261   1.082       .  S
N4256      C4257   1.357       .  A
N4256      H4264   1.045       .  S
C4257      C4258   1.397       .  A
C4258      H4262   1.082       .  S
C4265      C4270   1.384       .  A
C4265      C4266   1.404       .  A
C4265      N4271   1.342       .  A
C4266      C4267   1.402       .  A
C4266      H4277   1.082       .  S
C4267      C4276   1.380       .  A
C4267      C4268   1.384       .  A
C4268      C4269   1.409       .  A
C4268      N4274   1.346       .  A
C4269      C4270   1.407       .  A
C4269      H4278   1.082       .  S
C4270      C4273   1.387       .  A
N4271      C4272   1.356       .  A
N4271      H4281   1.045       .  S
C4272      C4273   1.398       .  A
C4273      H4279   1.082       .  S
N4274      C4275   1.357       .  A
N4274      H4282   1.045       .  S
C4275      C4276   1.393       .  A
C4276      H4280   1.082       .  S
C4283      C4288   1.382       .  A
C4283      C4284   1.409       .  A
C4283      N4289   1.347       .  A
C4284      C4285   1.408       .  A
C4284      H4295   1.082       .  S
C4285      C4294   1.385       .  A
C4285      C4286   1.384       .  A
C4286      C4287   1.404       .  A
C4286      N4292   1.343       .  A
C4287      C4288   1.402       .  A
C4287      H4296   1.082       .  S
C4288      C4291   1.379       .  A
N4289      C4290   1.362       .  A
N4289      H4299   1.044       .  S
C4290      C4291   1.397       .  A
C4291      H4297   1.081       .  S
N4292      C4293   1.356       .  A
N4292      H4300   1.045       .  S
C4293      C4294   1.399       .  A
C4294      H4298   1.082       .  S
C4301      C4306   1.384       .  A
C4301      C4302   1.405       .  A
C4301      N4307   1.341       .  A
C4302      C4303   1.402       .  A
C4302      H4313   1.082       .  S
C4303      C4312   1.383       .  A
C4303      C4304   1.383       .  A
C4304      C4305   1.405       .  A
C4304      N4310   1.340       .  A
C4305      C4306   1.402       .  A
C4305      H4314   1.082       .  S
C4306      C4309   1.383       .  A
N4307      C4308   1.357       .  A
N4307      H4317   1.045       .  S
C4308      C4309   1.396       .  A
C4309      H4315   1.082       .  S
N4310      C4311   1.358       .  A
N4310      H4318   1.044       .  S
C4311      C4312   1.395       .  A
C4312      H4316   1.082       .  S
C4319      C4324   1.385       .  A
C4319      C4320   1.405       .  A
C4319      N4325   1.343       .  A
C4320      C4321   1.403       .  A
C4320      H4331   1.082       .  S
C4321      C4330   1.380       .  A
C4321      C4322   1.384       .  A
C4322      C4323   1.403       .  A
C4322      N4328   1.341       .  A
C4323      C4324   1.402       .  A
C4323      H4332   1.082       .  S
C4324      C4327   1.380       .  A
N4325      C4326   1.356       .  A
N4325      H4335   1.045       .  S
C4326      C4327   1.393       .  A
C4327      H4333   1.082       .  S
N4328      C4329   1.356       .  A
N4328      H4336   1.045       .  S
C4329      C4330   1.394       .  A
C4330      H4334   1.082       .  S
C4337      C4342   1.384       .  A
C4337      C4338   1.406       .  A
C4337      N4343   1.346       .  A
C4338      C4339   1.405       .  A
C4338      H4349   1.082       .  S
C4339      C4348   1.382       .  A
C4339      C4340   1.384       .  A
C4340      C4341   1.400       .  A
C4340      N4346   1.339       .  A
C4341      C4342   1.399       .  A
C4341      H4350   1.083       .  S
C4342      C4345   1.374       .  A
N4343      C4344   1.357       .  A
N4343      H4353   1.045       .  S
C4344      C4345   1.394       .  A
C4345      H4351   1.083       .  S
N4346      C4347   1.355       .  A
N4346      H4354   1.045       .  S
C4347      C4348   1.400       .  A
C4348      H4352   1.081       .  S
C4355      C4360   1.384       .  A
C4355      C4356   1.405       .  A
C4355      N4361   1.345       .  A
C4356      C4357   1.405       .  A
C4356      H4367   1.082       .  S
C4357      C4366   1.380       .  A
C4357      C4358   1.384       .  A
C4358      C4359   1.401       .  A
C4358      N4364   1.340       .  A
C4359      C4360   1.399       .  A
C4359      H4368   1.082       .  S
C4360      C4363   1.375       .  A
N4361      C4362   1.357       .  A
N4361      H4371   1.045       .  S
C4362      C4363   1.394       .  A
C4363      H4369   1.082       .  S
N4364      C4365   1.355       .  A
N4364      H4372   1.045       .  S
C4365      C4366   1.399       .  A
C4366      H4370   1.081       .  S
C4373      C4378   1.384       .  A
C4373      C4374   1.404       .  A
C4373      N4379   1.341       .  A
C4374      C4375   1.402       .  A
C4374      H4385   1.082       .  S
C4375      C4384   1.381       .  A
C4375      C4376   1.384       .  A
C4376      C4377   1.408       .  A
C4376      N4382   1.346       .  A
C4377      C4378   1.406       .  A
C4377      H4386   1.082       .  S
C4378      C4381   1.385       .  A
N4379      C4380   1.355       .  A
N4379      H4389   1.045       .  S
C4380      C4381   1.397       .  A
C4381      H4387   1.082       .  S
N4382      C4383   1.357       .  A
N4382      H4390   1.045       .  S
C4383      C4384   1.394       .  A
C4384      H4388   1.082       .  S
C4391      C4396   1.382       .  A
C4391      C4392   1.408       .  A
C4391      N4397   1.346       .  A
C4392      C4393   1.406       .  A
C4392      H4403   1.082       .  S
C4393      C4402   1.385       .  A
C4393      C4394   1.383       .  A
C4394      C4395   1.406       .  A
C4394      N4400   1.343       .  A
C4395      C4396   1.404       .  A
C4395      H4404   1.082       .  S
C4396      C4399   1.381       .  A
N4397      C4398   1.361       .  A
N4397      H4407   1.044       .  S
C4398      C4399   1.399       .  A
C4399      H4405   1.081       .  S
N4400      C4401   1.358       .  A
N4400      H4408   1.045       .  S
C4401      C4402   1.398       .  A
C4402      H4406   1.082       .  S
C4409      C4414   1.385       .  A
C4409      C4410   1.402       .  A
C4409      N4415   1.339       .  A
C4410      C4411   1.399       .  A
C4410      H4421   1.082       .  S
C4411      C4420   1.378       .  A
C4411      C4412   1.385       .  A
C4412      C4413   1.406       .  A
C4412      N4418   1.342       .  A
C4413      C4414   1.404       .  A
C4413      H4422   1.082       .  S
C4414      C4417   1.383       .  A
N4415      C4416   1.354       .  A
N4415      H4425   1.045       .  S
C4416      C4417   1.396       .  A
C4417      H4423   1.082       .  S
N4418      C4419   1.356       .  A
N4418      H4426   1.045       .  S
C4419      C4420   1.391       .  A
C4420      H4424   1.082       .  S
C4427      C4432   1.384       .  A
C4427      C4428   1.407       .  A
C4427      N4433   1.347       .  A
C4428      C4429   1.407       .  A
C4428      H4439   1.082       .  S
C4429      C4438   1.381       .  A
C4429      C4430   1.385       .  A
C4430      C4431   1.401       .  A
C4430      N4436   1.344       .  A
C4431      C4432   1.401       .  A
C4431      H4440   1.082       .  S
C4432      C4435   1.374       .  A
N4433      C4434   1.358       .  A
N4433      H4443   1.044       .  S
C4434      C4435   1.396       .  A
C4435      H4441   1.082       .  S
N4436      C4437   1.354       .  A
N4436      H4444   1.045       .  S
C4437      C4438   1.399       .  A
C4438      H4442   1.082       .  S
C4445      C4450   1.382       .  A
C4445      C4446   1.405       .  A
C4445      N4451   1.343       .  A
C4446      C4447   1.403       .  A
C4446      H4457   1.082       .  S
C4447      C4456   1.378       .  A
C4447      C4448   1.384       .  A
C4448      C4449   1.403       .  A
C4448      N4454   1.344       .  A
C4449      C4450   1.402       .  A
C4449      H4458   1.082       .  S
C4450      C4453   1.376       .  A
N4451      C4452   1.359       .  A
N4451      H4461   1.045       .  S
C4452      C4453   1.398       .  A
C4453      H4459   1.082       .  S
N4454      C4455   1.355       .  A
N4454      H4462   1.045       .  S
C4455      C4456   1.396       .  A
C4456      H4460   1.082       .  S
C4463      C4468   1.384       .  A
C4463      C4464   1.401       .  A
C4463      N4469   1.342       .  A
C4464      C4465   1.400       .  A
C4464      H4475   1.082       .  S
C4465      C4474   1.373       .  A
C4465      C4466   1.383       .  A
C4466      C4467   1.408       .  A
C4466      N4472   1.348       .  A
C4467      C4468   1.407       .  A
C4467      H4476   1.082       .  S
C4468      C4471   1.382       .  A
N4469      C4470   1.354       .  A
N4469      H4479   1.045       .  S
C4470      C4471   1.397       .  A
C4471      H4477   1.082       .  S
N4472      C4473   1.361       .  A
N4472      H4480   1.043       .  S
C4473      C4474   1.396       .  A
C4474      H4478   1.082       .  S
C4481      C4486   1.385       .  A
C4481      C4482   1.404       .  A
C4481      N4487   1.346       .  A
C4482      C4483   1.404       .  A
C4482      H4493   1.082       .  S
C4483      C4492   1.379       .  A
C4483      C4484   1.385       .  A
C4484      C4485   1.402       .  A
C4484      N4490   1.344       .  A
C4485      C4486   1.402       .  A
C4485      H4494   1.082       .  S
C4486      C4489   1.375       .  A
N4487      C4488   1.355       .  A
N4487      H4497   1.045       .  S
C4488      C4489   1.395       .  A
C4489      H4495   1.083       .  S
N4490      C4491   1.354       .  A
N4490      H4498   1.045       .  S
C4491      C4492   1.395       .  A
C4492      H4496   1.082       .  S
C4499      C4504   1.384       .  A
C4499      C4500   1.405       .  A
C4499      N4505   1.343       .  A
C4500      C4501   1.404       .  A
C4500      H4511   1.082       .  S
C4501      C4510   1.381       .  A
C4501      C4502   1.382       .  A
C4502      C4503   1.407       .  A
C4502      N4508   1.345       .  A
C4503      C4504   1.405       .  A
C4503      H4512   1.082       .  S
C4504      C4507   1.383       .  A
N4505      C4506   1.357       .  A
N4505      H4515   1.045       .  S
C4506      C4507   1.397       .  A
C4507      H4513   1.082       .  S
N4508      C4509   1.360       .  A
N4508      H4516   1.044       .  S
C4509      C4510   1.399       .  A
C4510      H4514   1.081       .  S
C4517      C4522   1.385       .  A
C4517      C4518   1.401       .  A
C4517      N4523   1.344       .  A
C4518      C4519   1.402       .  A
C4518      H4529   1.082       .  S
C4519      C4528   1.375       .  A
C4519      C4520   1.385       .  A
C4520      C4521   1.406       .  A
C4520      N4526   1.348       .  A
C4521      C4522   1.407       .  A
C4521      H4530   1.082       .  S
C4522      C4525   1.380       .  A
N4523      C4524   1.354       .  A
N4523      H4533   1.045       .  S
C4524      C4525   1.398       .  A
C4525      H4531   1.082       .  S
N4526      C4527   1.356       .  A
N4526      H4534   1.045       .  S
C4527      C4528   1.394       .  A
C4528      H4532   1.082       .  S
C4535      C4540   1.384       .  A
C4535      C4536   1.403       .  A
C4535      N4541   1.346       .  A
C4536      C4537   1.404       .  A
C4536      H4547   1.082       .  S
C4537      C4546   1.375       .  A
C4537      C4538   1.385       .  A
C4538      C4539   1.400       .  A
C4538      N4544   1.344       .  A
C4539      C4540   1.401       .  A
C4539      H4548   1.082       .  S
C4540      C4543   1.371       .  A
N4541      C4542   1.356       .  A
N4541      H4551   1.044       .  S
C4542      C4543   1.397       .  A
C4543      H4549   1.082       .  S
N4544      C4545   1.354       .  A
N4544      H4552   1.045       .  S
C4545      C4546   1.396       .  A
C4546      H4550   1.083       .  S
C4553      C4558   1.384       .  A
C4553      C4554   1.408       .  A
C4553      N4559   1.349       .  A
C4554      C4555   1.408       .  A
C4554      H4565   1.082       .  S
C4555      C4564   1.383       .  A
C4555      C4556   1.383       .  A
C4556      C4557   1.402       .  A
C4556      N4562   1.342       .  A
C4557      C4558   1.401       .  A
C4557      H4566   1.082       .  S
C4558      C4561   1.375       .  A
N4559      C4560   1.359       .  A
N4559      H4569   1.045       .  S
C4560      C4561   1.394       .  A
C4561      H4567   1.082       .  S
N4562      C4563   1.356       .  A
N4562      H4570   1.045       .  S
C4563      C4564   1.403       .  A
C4564      H4568   1.081       .  S
C4571      C4576   1.384       .  A
C4571      C4572   1.406       .  A
C4571      N4577   1.344       .  A
C4572      C4573   1.404       .  A
C4572      H4583   1.082       .  S
C4573      C4582   1.382       .  A
C4573      C4574   1.383       .  A
C4574      C4575   1.403       .  A
C4574      N4580   1.341       .  A
C4575      C4576   1.401       .  A
C4575      H4584   1.082       .  S
C4576      C4579   1.378       .  A
N4577      C4578   1.357       .  A
N4577      H4587   1.045       .  S
C4578      C4579   1.395       .  A
C4579      H4585   1.082       .  S
N4580      C4581   1.357       .  A
N4580      H4588   1.045       .  S
C4581      C4582   1.399       .  A
C4582      H4586   1.081       .  S
C4589      C4594   1.384       .  A
C4589      C4590   1.406       .  A
C4589      N4595   1.349       .  A
C4590      C4591   1.407       .  A
C4590      H4601   1.082       .  S
C4591      C4600   1.379       .  A
C4591      C4592   1.382       .  A
C4592      C4593   1.406       .  A
C4592      N4598   1.348       .  A
C4593      C4594   1.407       .  A
C4593      H4602   1.082       .  S
C4594      C4597   1.379       .  A
N4595      C4596   1.357       .  A
N4595      H4605   1.044       .  S
C4596      C4597   1.399       .  A
C4597      H4603   1.082       .  S
N4598      C4599   1.359       .  A
N4598      H4606   1.044       .  S
C4599      C4600   1.401       .  A
C4600      H4604   1.081       .  S
C4607      C4612   1.384       .  A
C4607      C4608   1.407       .  A
C4607      N4613   1.346       .  A
C4608      C4609   1.406       .  A
C4608      H4619   1.082       .  S
C4609      C4618   1.384       .  A
C4609      C4610   1.384       .  A
C4610      C4611   1.407       .  A
C4610      N4616   1.345       .  A
C4611      C4612   1.406       .  A
C4611      H4620   1.082       .  S
C4612      C4615   1.383       .  A
N4613      C4614   1.356       .  A
N4613      H4623   1.045       .  S
C4614      C4615   1.396       .  A
C4615      H4621   1.082       .  S
N4616      C4617   1.358       .  A
N4616      H4624   1.045       .  S
C4617      C4618   1.397       .  A
C4618      H4622   1.082       .  S
C4625      C4630   1.384       .  A
C4625      C4626   1.402       .  A
C4625      N4631   1.341       .  A
C4626      C4627   1.401       .  A
C4626      H4637   1.083       .  S
C4627      C4636   1.376       .  A
C4627      C4628   1.384       .  A
C4628      C4629   1.408       .  A
C4628      N4634   1.347       .  A
C4629      C4630   1.407       .  A
C4629      H4638   1.082       .  S
C4630      C4633   1.384       .  A
N4631      C4632   1.356       .  A
N4631      H4641   1.045       .  S
C4632      C4633   1.397       .  A
C4633      H4639   1.082       .  S
N4634      C4635   1.356       .  A
N4634      H4642   1.045       .  S
C4635      C4636   1.394       .  A
C4636      H4640   1.083       .  S
C4643      C4648   1.385       .  A
C4643      C4644   1.401       .  A
C4643      N4649   1.346       .  A
C4644      C4645   1.403       .  A
C4644      H4655   1.082       .  S
C4645      C4654   1.373       .  A
C4645      C4646   1.384       .  A
C4646      C4647   1.404       .  A
C4646      N4652   1.348       .  A
C4647      C4648   1.406       .  A
C4647      H4656   1.082       .  S
C4648      C4651   1.376       .  A
N4649      C4650   1.355       .  A
N4649      H4659   1.044       .  S
C4650      C4651   1.397       .  A
C4651      H4657   1.083       .  S
N4652      C4653   1.356       .  A
N4652      H4660   1.044       .  S
C4653      C4654   1.397       .  A
C4654      H4658   1.082       .  S
C4661      C4666   1.384       .  A
C4661      C4662   1.402       .  A
C4661      N4667   1.343       .  A
C4662      C4663   1.402       .  A
C4662      H4673   1.082       .  S
C4663      C4672   1.374       .  A
C4663      C4664   1.384       .  A
C4664      C4665   1.404       .  A
C4664      N4670   1.344       .  A
C4665      C4666   1.403       .  A
C4665      H4674   1.082       .  S
C4666      C4669   1.379       .  A
N4667      C4668   1.356       .  A
N4667      H4677   1.045       .  S
C4668      C4669   1.395       .  A
C4669      H4675   1.082       .  S
N4670      C4671   1.358       .  A
N4670      H4678   1.043       .  S
C4671      C4672   1.397       .  A
C4672      H4676   1.083       .  S
C4679      C4684   1.384       .  A
C4679      C4680   1.406       .  A
C4679      N4685   1.345       .  A
C4680      C4681   1.405       .  A
C4680      H4691   1.082       .  S
C4681      C4690   1.382       .  A
C4681      C4682   1.383       .  A
C4682      C4683   1.402       .  A
C4682      N4688   1.340       .  A
C4683      C4684   1.400       .  A
C4683      H4692   1.082       .  S
C4684      C4687   1.376       .  A
N4685      C4686   1.356       .  A
N4685      H4695   1.045       .  S
C4686      C4687   1.395       .  A
C4687      H4693   1.083       .  S
N4688      C4689   1.356       .  A
N4688      H4696   1.045       .  S
C4689      C4690   1.400       .  A
C4690      H4694   1.081       .  S
C4697      C4702   1.383       .  A
C4697      C4698   1.408       .  A
C4697      N4703   1.346       .  A
C4698      C4699   1.407       .  A
C4698      H4709   1.082       .  S
C4699      C4708   1.383       .  A
C4699      C4700   1.382       .  A
C4700      C4701   1.407       .  A
C4700      N4706   1.346       .  A
C4701      C4702   1.405       .  A
C4701      H4710   1.082       .  S
C4702      C4705   1.384       .  A
N4703      C4704   1.359       .  A
N4703      H4713   1.045       .  S
C4704      C4705   1.397       .  A
C4705      H4711   1.082       .  S
N4706      C4707   1.360       .  A
N4706      H4714   1.044       .  S
C4707      C4708   1.400       .  A
C4708      H4712   1.082       .  S
C4715      C4720   1.384       .  A
C4715      C4716   1.406       .  A
C4715      N4721   1.342       .  A
C4716      C4717   1.404       .  A
C4716      H4727   1.082       .  S
C4717      C4726   1.383       .  A
C4717      C4718   1.384       .  A
C4718      C4719   1.404       .  A
C4718      N4724   1.341       .  A
C4719      C4720   1.402       .  A
C4719      H4728   1.082       .  S
C4720      C4723   1.382       .  A
N4721      C4722   1.356       .  A
N4721      H4731   1.045       .  S
C4722      C4723   1.394       .  A
C4723      H4729   1.082       .  S
N4724      C4725   1.355       .  A
N4724      H4732   1.045       .  S
C4725      C4726   1.396       .  A
C4726      H4730   1.082       .  S
C4733      C4738   1.384       .  A
C4733      C4734   1.403       .  A
C4733      N4739   1.340       .  A
C4734      C4735   1.401       .  A
C4734      H4745   1.082       .  S
C4735      C4744   1.381       .  A
C4735      C4736   1.385       .  A
C4736      C4737   1.403       .  A
C4736      N4742   1.339       .  A
C4737      C4738   1.400       .  A
C4737      H4746   1.082       .  S
C4738      C4741   1.379       .  A
N4739      C4740   1.356       .  A
N4739      H4749   1.045       .  S
C4740      C4741   1.392       .  A
C4741      H4747   1.082       .  S
N4742      C4743   1.354       .  A
N4742      H4750   1.045       .  S
C4743      C4744   1.393       .  A
C4744      H4748   1.082       .  S
C4751      C4756   1.385       .  A
C4751      C4752   1.398       .  A
C4751      N4757   1.341       .  A
C4752      C4753   1.399       .  A
C4752      H4763   1.082       .  S
C4753      C4762   1.370       .  A
C4753      C4754   1.384       .  A
C4754      C4755   1.404       .  A
C4754      N4760   1.345       .  A
C4755      C4756   1.404       .  A
C4755      H4764   1.082       .  S
C4756      C4759   1.376       .  A
N4757      C4758   1.353       .  A
N4757      H4767   1.045       .  S
C4758      C4759   1.396       .  A
C4759      H4765   1.083       .  S
N4760      C4761   1.356       .  A
N4760      H4768   1.044       .  S
C4761      C4762   1.396       .  A
C4762      H4766   1.082       .  S
